data_Molecule from CHK

_cell_length_a		26.662439
_cell_length_b		25.841035
_cell_length_c		8.379106
_cell_angle_alpha	95.908752
_cell_angle_beta	89.212635
_cell_angle_gamma	84.470255
_symmetry_space_group_name_H-M	'P 1'
_symmetry_Int_Tables_number		1

loop_
	_symmetry_equiv_pos_as_xyz
	x,y,z

loop_
	_atom_site_label
	_atom_site_type_symbol
	_atom_site_fract_x
	_atom_site_fract_y
	_atom_site_fract_z
	C0	C	-0.188118	0.758911	0.091872
	C1	C	0.008682	0.567326	0.887735
	C2	C	-0.004183	0.948140	0.903308
	C3	C	0.180463	0.729877	0.045480
	C4	C	-0.190873	0.765629	0.259184
	C5	C	0.045886	0.601770	0.891025
	C6	C	-0.004379	0.946825	0.736561
	C7	C	0.145282	0.773660	0.059112
	C8	C	-0.146832	0.760854	0.347599
	C9	C	0.042250	0.642898	0.794628
	C10	C	-0.003291	0.898960	0.641425
	C11	C	0.102767	0.774987	0.159039
	C12	C	-0.098802	0.750001	0.274274
	C13	C	0.001943	0.651291	0.691141
	C14	C	-0.002173	0.851048	0.707133
	C15	C	0.094576	0.734104	0.251743
	C16	C	-0.097351	0.742900	0.105948
	C17	C	-0.034908	0.616029	0.690449
	C18	C	-0.002329	0.853690	0.875174
	C19	C	0.130704	0.690527	0.234511
	C20	C	-0.140949	0.747156	0.015927
	C21	C	-0.031888	0.574671	0.786448
	C22	C	-0.003306	0.901137	0.971960
	C23	C	0.173017	0.688028	0.132478
	H24	H	-0.226781	0.775738	0.321144
	H25	H	0.077598	0.595728	0.968239
	H26	H	-0.006655	0.982718	0.680449
	H27	H	0.151737	0.806112	-0.007584
	H28	H	-0.150051	0.766219	0.477488
	H29	H	0.071912	0.668868	0.799433
	H30	H	-0.003755	0.899045	0.512153
	H31	H	0.075796	0.809329	0.167360
	H32	H	-0.061675	0.733206	0.041934
	H33	H	-0.066851	0.620239	0.612837
	H34	H	-0.002101	0.818229	0.933286
	H35	H	0.126292	0.657716	0.302254
	H36	H	-0.138924	0.741505	-0.113639
	H37	H	-0.060539	0.547759	0.779534
	H38	H	-0.003907	0.902363	1.101255
	H39	H	0.200823	0.654473	0.120505
	N40	N	-0.232480	0.763453	-0.010483
	N41	N	0.014384	0.524133	0.989678
	N42	N	-0.005502	0.996827	1.011874
	N43	N	0.226277	0.728848	-0.053323
	O44	O	-0.226908	0.780535	-0.145602
	O45	O	-0.027640	0.998190	1.147459
	O46	O	0.233714	0.695640	-0.175091
	O47	O	0.058305	0.502265	1.007306
	C48	C	-0.001564	0.798723	0.596747
	C49	C	0.045975	0.790124	0.484002
	C50	C	0.047646	0.739015	0.366722
	H51	H	0.047011	0.823812	0.416022
	H52	H	0.079886	0.788976	0.556274
	C53	C	0.046759	0.692478	0.470612
	C54	C	-0.000290	0.697626	0.585676
	H55	H	0.046800	0.655707	0.393166
	H56	H	0.081064	0.690039	0.540464
	C57	C	-0.001067	0.750444	0.693719
	H58	H	-0.034535	0.754459	0.772480
	H59	H	0.032017	0.749382	0.769227
	C60	C	-0.048994	0.798954	0.490375
	C61	C	-0.001447	0.740983	0.268885
	C62	C	-0.050372	0.747601	0.375956
	H63	H	-0.002210	0.773384	0.194717
	H64	H	-0.000189	0.704703	0.188408
	C65	C	-0.048035	0.701045	0.480293
	H66	H	-0.082393	0.805425	0.569758
	H67	H	-0.050840	0.831854	0.417735
	H68	H	-0.081821	0.705094	0.557687
	H69	H	-0.048757	0.664914	0.400137
	C70	C	0.305594	0.763294	0.901351
	C71	C	0.680627	0.749985	0.931494
	C72	C	0.487509	0.937157	0.126057
	C73	C	0.511645	0.554768	0.088330
	C74	C	0.350900	0.765896	0.981483
	C75	C	0.684886	0.742448	0.764444
	C76	C	0.450586	0.902365	0.119388
	C77	C	0.511083	0.555145	0.254902
	C78	C	0.396146	0.765228	0.894757
	C79	C	0.641717	0.745698	0.671824
	C80	C	0.454328	0.860583	0.213211
	C81	C	0.508437	0.602590	0.352713
	C82	C	0.397904	0.762403	0.726693
	C83	C	0.592979	0.755326	0.740474
	C84	C	0.494395	0.851846	0.317184
	C85	C	0.506511	0.651000	0.289857
	C86	C	0.351521	0.760666	0.649832
	C87	C	0.589904	0.763247	0.908582
	C88	C	0.530812	0.887681	0.321927
	C89	C	0.508084	0.649285	0.121964
	C90	C	0.305985	0.760732	0.734400
	C91	C	0.632718	0.760788	1.002927
	C92	C	0.527774	0.929641	0.228350
	C93	C	0.510490	0.602258	0.022494
	H94	H	0.349884	0.767973	1.110926
	H95	H	0.721324	0.732791	0.705557
	H96	H	0.419043	0.908769	0.041696
	H97	H	0.513665	0.518854	0.308903
	H98	H	0.430730	0.766731	0.959964
	H99	H	0.646319	0.739978	0.542274
	H100	H	0.424790	0.834554	0.207028
	H101	H	0.507932	0.601811	0.481791
	H102	H	0.350859	0.758741	0.520101
	H103	H	0.553482	0.772334	0.968286
	H104	H	0.562522	0.883398	0.400416
	H105	H	0.507542	0.685140	0.065904
	H106	H	0.270984	0.759241	0.671449
	H107	H	0.629611	0.767058	1.132281
	H108	H	0.556142	0.956869	0.237623
	H109	H	0.511630	0.601763	-0.106606
	N110	N	0.258923	0.762917	0.995651
	N111	N	0.724464	0.746571	1.036497
	N112	N	0.482015	0.980736	0.025747
	N113	N	0.513152	0.506555	-0.022496
	O114	O	0.252016	0.793078	1.124883
	O115	O	0.438259	1.003129	0.009420
	O116	O	0.536767	0.505074	-0.155532
	O117	O	0.718642	0.730011	1.172200
	C118	C	0.496778	0.804743	0.419551
	C119	C	0.501010	0.752092	0.309199
	C120	C	0.502584	0.702918	0.403197
	H121	H	0.468943	0.751975	0.229692
	H122	H	0.535334	0.749979	0.235168
	C123	C	0.548282	0.704515	0.515926
	C124	C	0.545872	0.755707	0.632811
	H125	H	0.550659	0.671217	0.587024
	H126	H	0.582613	0.699957	0.440918
	C127	C	0.543003	0.802870	0.531212
	H128	H	0.541395	0.838861	0.613153
	H129	H	0.577715	0.800564	0.458771
	C130	C	0.448197	0.807082	0.526579
	C131	C	0.453743	0.708465	0.509293
	C132	C	0.447822	0.759633	0.626504
	H133	H	0.421544	0.706745	0.430241
	H134	H	0.453198	0.675179	0.579819
	C135	C	0.495476	0.759634	0.732139
	H136	H	0.444737	0.843375	0.607513
	H137	H	0.414998	0.808719	0.451908
	H138	H	0.492329	0.795891	0.812936
	H139	H	0.496645	0.726497	0.803582
	C140	C	-0.019845	0.465771	0.159901
	C141	C	0.016968	0.084351	0.082049
	C142	C	-0.186557	0.264443	0.924626
	C143	C	0.183963	0.273848	0.942297
	C144	C	-0.055630	0.429733	0.152371
	C145	C	0.020726	0.083096	0.247433
	C146	C	-0.140804	0.268452	1.001415
	C147	C	0.154571	0.231988	0.923685
	C148	C	-0.050479	0.387603	0.244869
	C149	C	0.018233	0.129702	0.348847
	C150	C	-0.097095	0.274044	0.913485
	C151	C	0.111100	0.235691	0.832773
	C152	C	-0.010429	0.380198	0.349901
	C153	C	0.013328	0.178922	0.290658
	C154	C	-0.097141	0.276306	0.747034
	C155	C	0.095842	0.280222	0.755785
	C156	C	0.023730	0.418394	0.359895
	C157	C	0.012502	0.178868	0.123403
	C158	C	-0.144111	0.274372	0.674130
	C159	C	0.125467	0.322225	0.781416
	C160	C	0.019239	0.460692	0.267765
	C161	C	0.014392	0.132584	0.020148
	C162	C	-0.188281	0.269131	0.760435
	C163	C	0.168433	0.319687	0.875214
	H164	H	-0.086923	0.434925	0.073005
	H165	H	0.025685	0.046168	0.297673
	H166	H	-0.139937	0.266476	1.129531
	H167	H	0.166211	0.196941	0.978940
	H168	H	-0.078537	0.359861	0.235272
	H169	H	0.020081	0.127480	0.477099
	H170	H	-0.062279	0.276623	0.976788
	H171	H	0.089041	0.202526	0.819536
	H172	H	0.055023	0.415494	0.440450
	H173	H	0.010360	0.215683	0.072270
	H174	H	-0.146394	0.276972	0.546114
	H175	H	0.115116	0.358103	0.728514
	H176	H	0.046036	0.489546	0.280077
	H177	H	0.013218	0.133152	-0.108474
	H178	H	-0.223705	0.269033	0.699624
	H179	H	0.190748	0.352418	0.895162
	N180	N	-0.026361	0.509743	0.061196
	N181	N	0.019020	0.036323	-0.029799
	N182	N	-0.231648	0.259568	1.023407
	N183	N	0.229438	0.271147	1.038331
	O184	O	-0.070348	0.531378	0.044481
	O185	O	-0.234150	0.281756	1.165886
	O186	O	0.233734	0.305778	1.154202
	O187	O	0.040958	0.035734	-0.165104
	C188	C	-0.048417	0.278982	0.644905
	C189	C	-0.000136	0.279418	0.747861
	C190	C	0.048989	0.280918	0.646759
	H191	H	-0.003697	0.313440	0.837991
	H192	H	0.003611	0.244395	0.810850
	C193	C	0.054136	0.232365	0.518831
	C194	C	0.007675	0.229537	0.409834
	H195	H	0.088092	0.233168	0.444446
	H196	H	0.059631	0.196701	0.578175
	C197	C	-0.040244	0.230068	0.518825
	H198	H	-0.072906	0.227828	0.441811
	H199	H	-0.038128	0.195135	0.582748
	C200	C	-0.052003	0.328629	0.553529
	C201	C	0.041941	0.330357	0.554668
	C202	C	-0.004680	0.331221	0.444514
	H203	H	0.037368	0.365183	0.641514
	H204	H	0.076001	0.331738	0.481486
	C205	C	0.001948	0.280501	0.324932
	H206	H	-0.085645	0.329539	0.480782
	H207	H	-0.056947	0.363546	0.640180
	H208	H	-0.030760	0.279655	0.248295
	H209	H	0.035149	0.282286	0.248129
	C210	C	0.311984	0.229792	0.084926
	C211	C	0.516797	0.038469	0.854284
	C212	C	0.489858	0.419155	0.905498
	C213	C	0.687612	0.226565	0.061885
	C214	C	0.310538	0.233418	0.252040
	C215	C	0.553908	0.072994	0.856792
	C216	C	0.488749	0.419710	0.739327
	C217	C	0.641315	0.224034	-0.012508
	C218	C	0.355447	0.229387	0.335811
	C219	C	0.549597	0.114486	0.761725
	C220	C	0.491133	0.372733	0.639409
	C221	C	0.597710	0.219762	0.077839
	C222	C	0.402969	0.221937	0.257909
	C223	C	0.509052	0.122747	0.659128
	C224	C	0.494433	0.323870	0.699753
	C225	C	0.598456	0.217506	0.244216
	C226	C	0.403034	0.216430	0.089588
	C227	C	0.473303	0.086221	0.654905
	C228	C	0.494601	0.324637	0.867356
	C229	C	0.645959	0.217608	0.314397
	C230	C	0.358438	0.219575	0.003738
	C231	C	0.477017	0.044507	0.749336
	C232	C	0.492458	0.371213	0.969029
	C233	C	0.689991	0.221401	0.225693
	H234	H	0.274613	0.239307	0.315763
	H235	H	0.585700	0.067020	0.933771
	H236	H	0.485116	0.456411	0.687553
	H237	H	0.640006	0.226407	-0.140377
	H238	H	0.353247	0.232405	0.465691
	H239	H	0.578912	0.140802	0.766513
	H240	H	0.490284	0.374282	0.510698
	H241	H	0.562320	0.218579	0.017161
	H242	H	0.438426	0.208680	0.023083
	H243	H	0.441573	0.089718	0.576191
	H244	H	0.496244	0.288323	0.921112
	H245	H	0.648782	0.214967	0.442271
	H246	H	0.358896	0.214727	-0.125889
	H247	H	0.449143	0.016738	0.740327
	H248	H	0.492628	0.371059	1.097916
	H249	H	0.725797	0.220306	0.284467
	N250	N	0.265655	0.232874	-0.007545
	N251	N	0.522868	-0.005339	0.953721
	N252	N	0.488193	0.467159	1.017226
	N253	N	0.732575	0.231087	-0.037928
	O254	O	0.262390	0.201223	-0.132042
	O255	O	0.465212	0.468085	1.151061
	O256	O	0.734832	0.208963	-0.180384
	O257	O	0.566674	-0.027528	0.969972
	C258	C	0.497620	0.272585	0.583658
	C259	C	0.545002	0.268356	0.471501
	C260	C	0.549974	0.218102	0.350268
	H261	H	0.544178	0.302350	0.403530
	H262	H	0.578334	0.269648	0.545828
	C263	C	0.551764	0.169610	0.446482
	C264	C	0.504767	0.170585	0.559669
	H265	H	0.554565	0.133930	0.362916
	H266	H	0.585901	0.167601	0.516809
	C267	C	0.501232	0.222528	0.673678
	H268	H	0.468096	0.223473	0.752498
	H269	H	0.534472	0.222449	0.748056
	C270	C	0.450405	0.271343	0.477557
	C271	C	0.500775	0.218622	0.251450
	C272	C	0.451854	0.220984	0.357456
	H273	H	0.497922	0.252727	0.184016
	H274	H	0.503293	0.183222	0.166976
	C275	C	0.457016	0.172798	0.454684
	H276	H	0.417138	0.274924	0.557070
	H277	H	0.446486	0.305303	0.409271
	H278	H	0.423435	0.173851	0.531715
	H279	H	0.458091	0.137460	0.370083
