data_Molecule from CHK

_cell_length_a		23.993196
_cell_length_b		24.463787
_cell_length_c		7.898864
_cell_angle_alpha	91.070862
_cell_angle_beta	89.948218
_cell_angle_gamma	83.036770
_symmetry_space_group_name_H-M	'P 1'
_symmetry_Int_Tables_number		1

loop_
	_symmetry_equiv_pos_as_xyz
	x,y,z

loop_
	_atom_site_label
	_atom_site_type_symbol
	_atom_site_fract_x
	_atom_site_fract_y
	_atom_site_fract_z
	C0	C	-0.179764	0.765758	0.348636
	C1	C	-0.000682	0.552369	1.295715
	C2	C	-0.019071	0.950463	1.356078
	C3	C	0.212426	0.744179	0.478532
	C4	C	-0.173472	0.721861	0.459954
	C5	C	-0.007515	0.604659	1.371740
	C6	C	0.024325	0.907244	1.365882
	C7	C	0.161873	0.735284	0.402671
	C8	C	-0.134709	0.720943	0.591953
	C9	C	-0.009401	0.651595	1.273153
	C10	C	0.027549	0.863508	1.248544
	C11	C	0.113234	0.737289	0.500016
	C12	C	-0.099721	0.762360	0.615258
	C13	C	-0.002520	0.649018	1.097230
	C14	C	-0.012585	0.859848	1.120840
	C15	C	0.112463	0.747419	0.675513
	C16	C	-0.106427	0.805639	0.499810
	C17	C	0.004082	0.595972	1.023443
	C18	C	-0.056541	0.903145	1.116703
	C19	C	0.164493	0.753500	0.749751
	C20	C	-0.145437	0.807471	0.368178
	C21	C	0.004750	0.548451	1.119813
	C22	C	-0.060080	0.947510	1.232187
	C23	C	0.213773	0.752299	0.653641
	H24	H	-0.197894	0.687898	0.443454
	H25	H	-0.010350	0.609795	1.507293
	H26	H	0.055616	0.907005	1.464035
	H27	H	0.160424	0.725944	0.268789
	H28	H	-0.131739	0.686391	0.676425
	H29	H	-0.017361	0.691341	1.335708
	H30	H	0.062623	0.831307	1.257024
	H31	H	0.075382	0.729764	0.434834
	H32	H	-0.080131	0.838517	0.511840
	H33	H	0.008508	0.591717	0.887124
	H34	H	-0.089072	0.902519	1.022036
	H35	H	0.166382	0.760020	0.885548
	H36	H	-0.149632	0.840909	0.279919
	H37	H	0.009770	0.508093	1.059561
	H38	H	-0.094453	0.980364	1.226808
	H39	H	0.253431	0.757613	0.712483
	N40	N	-0.218019	0.766793	0.202893
	N41	N	0.001659	0.501405	1.394210
	N42	N	-0.025652	0.997152	1.478443
	N43	N	0.263465	0.744366	0.375473
	O44	O	-0.202530	0.785224	0.063941
	O45	O	-0.074785	1.020269	1.510474
	O46	O	0.310248	0.724743	0.436092
	O47	O	0.026039	0.457217	1.328388
	C48	C	-0.007748	0.808906	0.998130
	C49	C	0.048252	0.803912	0.895101
	C50	C	0.056677	0.751464	0.778648
	H51	H	0.048988	0.840606	0.818373
	H52	H	0.083543	0.803367	0.982452
	C53	C	0.054643	0.700162	0.890956
	C54	C	-0.001846	0.701746	0.990360
	H55	H	0.061133	0.663202	0.809992
	H56	H	0.089490	0.697071	0.980762
	C57	C	-0.008305	0.755413	1.101294
	H58	H	-0.047976	0.758880	1.171312
	H59	H	0.025769	0.752911	1.192855
	C60	C	-0.057026	0.810624	0.868979
	C61	C	0.005293	0.754443	0.658202
	C62	C	-0.052230	0.758935	0.749947
	H63	H	0.006246	0.789306	0.574242
	H64	H	0.008258	0.716765	0.581375
	C65	C	-0.051071	0.707062	0.861947
	H66	H	-0.097222	0.813193	0.936084
	H67	H	-0.057632	0.847607	0.793364
	H68	H	-0.090672	0.708717	0.932021
	H69	H	-0.047400	0.670023	0.781370
	C70	C	0.306614	0.763839	1.108083
	C71	C	0.693760	0.746911	1.080080
	C72	C	0.487205	0.935295	0.131364
	C73	C	0.500213	0.549794	0.159728
	C74	C	0.309410	0.806170	0.993572
	C75	C	0.684201	0.789143	0.963648
	C76	C	0.443567	0.933176	0.247043
	C77	C	0.456844	0.560975	0.277548
	C78	C	0.353302	0.803453	0.876076
	C79	C	0.641855	0.787811	0.842299
	C80	C	0.445086	0.890024	0.361044
	C81	C	0.457250	0.605052	0.393049
	C82	C	0.395809	0.758800	0.868099
	C83	C	0.607092	0.745622	0.835267
	C84	C	0.489819	0.847518	0.364523
	C85	C	0.499743	0.639791	0.393358
	C86	C	0.392123	0.717083	0.985989
	C87	C	0.618691	0.703254	0.951788
	C88	C	0.532838	0.850442	0.245454
	C89	C	0.542967	0.626951	0.274556
	C90	C	0.348411	0.718978	1.103624
	C91	C	0.660839	0.703765	1.072904
	C92	C	0.532129	0.893424	0.131075
	C93	C	0.543270	0.583262	0.158571
	H94	H	0.276821	0.840803	0.996787
	H95	H	0.708633	0.823373	0.969275
	H96	H	0.408806	0.965716	0.247604
	H97	H	0.422586	0.536172	0.277802
	H98	H	0.354055	0.836916	0.788772
	H99	H	0.635051	0.821368	0.754329
	H100	H	0.410569	0.889907	0.449214
	H101	H	0.422874	0.612865	0.482535
	H102	H	0.424132	0.681759	0.985250
	H103	H	0.593210	0.669657	0.949167
	H104	H	0.568272	0.818395	0.242868
	H105	H	0.576730	0.652475	0.272121
	H106	H	0.346676	0.685020	1.187942
	H107	H	0.668647	0.671220	1.163520
	H108	H	0.567097	0.894526	0.045741
	H109	H	0.576526	0.574538	0.066148
	N110	N	0.257958	0.766932	1.222554
	N111	N	0.732527	0.748145	1.223637
	N112	N	0.484925	0.983233	0.020810
	N113	N	0.500266	0.508115	0.023309
	O114	O	0.211704	0.791846	1.171355
	O115	O	0.459106	1.028505	0.075745
	O116	O	0.517633	0.520453	-0.121270
	O117	O	0.716842	0.730934	1.364468
	C118	C	0.493067	0.798894	0.489799
	C119	C	0.493752	0.743757	0.389540
	C120	C	0.498777	0.692800	0.505612
	H121	H	0.455270	0.744806	0.314634
	H122	H	0.528490	0.739537	0.299094
	C123	C	0.553418	0.693013	0.613102
	C124	C	0.553990	0.746883	0.722068
	H125	H	0.557096	0.656888	0.693420
	H126	H	0.590553	0.688550	0.531494
	C127	C	0.547524	0.796046	0.598354
	H128	H	0.546327	0.834916	0.669624
	H129	H	0.584415	0.792622	0.515881
	C130	C	0.442513	0.803311	0.615923
	C131	C	0.448167	0.700510	0.630899
	C132	C	0.445665	0.754323	0.740587
	H133	H	0.408794	0.701846	0.560674
	H134	H	0.450824	0.664795	0.712759
	C135	C	0.501493	0.753143	0.839319
	H136	H	0.441842	0.841782	0.689082
	H137	H	0.403502	0.804320	0.543910
	H138	H	0.500729	0.791142	0.915273
	H139	H	0.504897	0.719477	0.928893
	C140	C	-0.019754	0.452880	-0.351927
	C141	C	0.013539	0.062143	-0.333982
	C142	C	-0.195113	0.270460	0.600592
	C143	C	0.204856	0.260804	0.553496
	C144	C	-0.062241	0.448271	-0.234266
	C145	C	-0.030174	0.071517	-0.216438
	C146	C	-0.192443	0.312751	0.485897
	C147	C	0.194104	0.301537	0.433057
	C148	C	-0.058397	0.404135	-0.123530
	C149	C	-0.033392	0.117086	-0.105373
	C150	C	-0.147241	0.311633	0.373787
	C151	C	0.146862	0.302337	0.328971
	C152	C	-0.012060	0.363287	-0.123718
	C153	C	0.006856	0.154196	-0.104778
	C154	C	-0.103242	0.268338	0.369692
	C155	C	0.109784	0.262245	0.338307
	C156	C	0.030468	0.369356	-0.241681
	C157	C	0.051455	0.142312	-0.219634
	C158	C	-0.107341	0.225959	0.484882
	C159	C	0.123135	0.220721	0.456813
	C160	C	0.027488	0.413540	-0.352424
	C161	C	0.055326	0.097073	-0.331244
	C162	C	-0.152603	0.226171	0.596734
	C163	C	0.169750	0.219553	0.562996
	H164	H	-0.098252	0.479438	-0.230185
	H165	H	-0.061527	0.043488	-0.210182
	H166	H	-0.226018	0.346464	0.485065
	H167	H	0.222533	0.332368	0.424101
	H168	H	-0.092438	0.402089	-0.034872
	H169	H	-0.068511	0.123701	-0.018155
	H170	H	-0.146894	0.345401	0.287461
	H171	H	0.139175	0.334904	0.237964
	H172	H	0.067366	0.338982	-0.245800
	H173	H	0.084067	0.169252	-0.220385
	H174	H	-0.074580	0.191299	0.485941
	H175	H	0.096237	0.188412	0.464871
	H176	H	0.062392	0.417117	-0.435984
	H177	H	0.090416	0.088482	-0.417486
	H178	H	-0.154562	0.191350	0.677431
	H179	H	0.179443	0.186966	0.652485
	N180	N	-0.024363	0.502665	-0.455899
	N181	N	0.020052	0.014726	-0.453360
	N182	N	-0.246003	0.272283	0.706587
	N183	N	0.254536	0.259304	0.661977
	O184	O	-0.054221	0.545281	-0.398038
	O185	O	-0.290421	0.299896	0.652790
	O186	O	0.302002	0.264052	0.597674
	O187	O	0.069297	-0.004406	-0.499372
	C188	C	-0.052504	0.265945	0.245563
	C189	C	0.003042	0.266435	0.346083
	C190	C	0.055677	0.262645	0.229348
	H191	H	0.000736	0.304216	0.423662
	H192	H	0.007370	0.232328	0.434073
	C193	C	0.057107	0.209047	0.118023
	C194	C	0.003097	0.207230	0.008725
	H195	H	0.094382	0.206371	0.037159
	H196	H	0.062262	0.172683	0.197332
	C197	C	-0.047853	0.212566	0.132956
	H198	H	-0.086976	0.212890	0.061541
	H199	H	-0.044163	0.176503	0.213464
	C200	C	-0.057186	0.315511	0.123163
	C201	C	0.047455	0.312282	0.107279
	C202	C	-0.006694	0.313659	-0.001907
	H203	H	0.045276	0.350992	0.180070
	H204	H	0.084053	0.310150	0.023876
	C205	C	-0.003602	0.258759	-0.105167
	H206	H	-0.095863	0.315433	0.050007
	H207	H	-0.059421	0.353735	0.198289
	H208	H	-0.041673	0.258704	-0.181498
	H209	H	0.031453	0.256266	-0.194349
	C210	C	0.485478	0.418418	0.914850
	C211	C	0.704209	0.246892	-0.044294
	C212	C	0.295674	0.253962	-0.061299
	C213	C	0.508463	0.028730	0.768441
	C214	C	0.530594	0.411156	0.801954
	C215	C	0.651018	0.250737	-0.117382
	C216	C	0.341331	0.213745	-0.087663
	C217	C	0.518609	0.077869	0.847660
	C218	C	0.532624	0.371015	0.673440
	C219	C	0.603322	0.249863	-0.016493
	C220	C	0.387437	0.211372	0.020897
	C221	C	0.517523	0.125718	0.754238
	C222	C	0.491113	0.335672	0.654884
	C223	C	0.606144	0.242284	0.158454
	C224	C	0.390649	0.249268	0.155415
	C225	C	0.507836	0.126867	0.579084
	C226	C	0.447063	0.342783	0.773562
	C227	C	0.660231	0.237074	0.228602
	C228	C	0.344253	0.289638	0.176860
	C229	C	0.501917	0.075953	0.500736
	C230	C	0.444157	0.383116	0.902119
	C231	C	0.708424	0.239193	0.130083
	C232	C	0.297187	0.291940	0.071636
	C233	C	0.502313	0.027485	0.592882
	H234	H	0.564553	0.436124	0.814070
	H235	H	0.645745	0.254030	-0.252315
	H236	H	0.340082	0.184118	-0.190283
	H237	H	0.527646	0.078941	0.981424
	H238	H	0.568028	0.367569	0.587311
	H239	H	0.562692	0.256184	-0.076133
	H240	H	0.421672	0.178727	0.000943
	H241	H	0.525430	0.162655	0.822015
	H242	H	0.414247	0.316021	0.765477
	H243	H	0.664788	0.231569	0.363916
	H244	H	0.344070	0.319486	0.279823
	H245	H	0.496211	0.074317	0.364754
	H246	H	0.410059	0.387727	0.992655
	H247	H	0.749525	0.235177	0.187838
	H248	H	0.261339	0.322622	0.090997
	H249	H	0.497287	-0.011318	0.530690
	N250	N	0.482872	0.459471	1.054163
	N251	N	0.756116	0.246410	-0.145624
	N252	N	0.246324	0.256420	-0.171275
	N253	N	0.508760	-0.021701	0.867262
	O254	O	0.464076	0.447299	1.196658
	O255	O	0.197816	0.258675	-0.105992
	O256	O	0.529427	-0.067311	0.802372
	O257	O	0.801858	0.224299	-0.083309
	C258	C	0.443489	0.244980	0.271129
	C259	C	0.449574	0.189845	0.369291
	C260	C	0.503351	0.181873	0.480693
	H261	H	0.412425	0.188820	0.449287
	H262	H	0.449995	0.155446	0.279079
	C263	C	0.555222	0.184625	0.364036
	C264	C	0.552670	0.240303	0.268938
	H265	H	0.593145	0.178507	0.441347
	H266	H	0.558458	0.150636	0.271313
	C267	C	0.497578	0.246403	0.163024
	H268	H	0.493362	0.285517	0.096557
	H269	H	0.500296	0.213230	0.068450
	C270	C	0.441679	0.292995	0.404372
	C271	C	0.500166	0.232129	0.605454
	C272	C	0.494765	0.288728	0.518209
	H273	H	0.464736	0.230848	0.691732
	H274	H	0.538691	0.229300	0.679181
	C275	C	0.547095	0.288319	0.401423
	H276	H	0.437826	0.332635	0.340762
	H277	H	0.404544	0.292598	0.484300
	H278	H	0.544705	0.327280	0.334151
	H279	H	0.585081	0.285025	0.478457
