data_Molecule from CHK

_cell_length_a		21.267170
_cell_length_b		21.266082
_cell_length_c		6.549004
_cell_angle_alpha	88.927778
_cell_angle_beta	88.931320
_cell_angle_gamma	88.489418
_symmetry_space_group_name_H-M	'P 1'
_symmetry_Int_Tables_number		1

loop_
	_symmetry_equiv_pos_as_xyz
	x,y,z

loop_
	_atom_site_label
	_atom_site_type_symbol
	_atom_site_fract_x
	_atom_site_fract_y
	_atom_site_fract_z
	C0	C	-0.210518	0.764231	0.004921
	C1	C	-0.013044	0.542961	1.243099
	C2	C	-0.014523	0.960311	1.244681
	C3	C	0.206517	0.763198	0.005510
	C4	C	-0.186029	0.706943	0.077974
	C5	C	-0.066014	0.559211	1.129279
	C6	C	0.042785	0.936078	1.170935
	C7	C	0.190232	0.816134	0.119442
	C8	C	-0.142709	0.704911	0.237147
	C9	C	-0.062542	0.602742	0.966335
	C10	C	0.044823	0.892761	1.011758
	C11	C	0.146857	0.812564	0.282775
	C12	C	-0.122602	0.758695	0.334775
	C13	C	-0.006679	0.632534	0.909090
	C14	C	-0.008985	0.872390	0.914871
	C15	C	0.117248	0.756626	0.340323
	C16	C	-0.152497	0.814986	0.270741
	C17	C	0.046771	0.609862	1.011217
	C18	C	-0.065340	0.901973	0.979807
	C19	C	0.140012	0.703213	0.238185
	C20	C	-0.194856	0.818083	0.109234
	C21	C	0.044425	0.565568	1.172610
	C22	C	-0.068432	0.944371	1.141198
	C23	C	0.184142	0.705664	0.076324
	H24	H	-0.200959	0.663366	0.015817
	H25	H	-0.110271	0.538319	1.171636
	H26	H	0.086347	0.951243	1.232598
	H27	H	0.210927	0.860461	0.076730
	H28	H	-0.123837	0.659666	0.287167
	H29	H	-0.105069	0.614157	0.884191
	H30	H	0.090094	0.874141	0.961073
	H31	H	0.135371	0.855089	0.364853
	H32	H	-0.141716	0.858162	0.345420
	H33	H	0.091945	0.626748	0.959752
	H34	H	-0.108555	0.890948	0.905801
	H35	H	0.123277	0.657994	0.289856
	H36	H	-0.215856	0.862739	0.062308
	H37	H	0.087599	0.548776	1.240844
	H38	H	-0.113109	0.965203	1.188661
	H39	H	0.200958	0.662513	0.008019
	N40	N	-0.251068	0.772132	-0.177088
	N41	N	-0.020594	0.499555	1.421778
	N42	N	-0.022266	1.001143	1.425978
	N43	N	0.249312	0.771099	-0.174605
	O44	O	-0.281798	0.823741	-0.194982
	O45	O	-0.073745	1.032120	1.443495
	O46	O	0.283246	0.819157	-0.181051
	O47	O	-0.068897	0.465957	1.428812
	C48	C	-0.006886	0.815112	0.766508
	C49	C	0.053069	0.813477	0.626577
	C50	C	0.057753	0.755073	0.486314
	H51	H	0.051872	0.856559	0.534110
	H52	H	0.095629	0.813118	0.717012
	C53	C	0.055242	0.694603	0.624700
	C54	C	-0.005207	0.692045	0.763170
	H55	H	0.056751	0.652507	0.532239
	H56	H	0.097339	0.693108	0.717130
	C57	C	-0.006300	0.752597	0.891573
	H58	H	-0.048235	0.752352	0.989643
	H59	H	0.035794	0.751224	0.984373
	C60	C	-0.064977	0.814751	0.624770
	C61	C	-0.002807	0.756123	0.357953
	C62	C	-0.065311	0.756652	0.483068
	H63	H	-0.002603	0.798064	0.259884
	H64	H	-0.001403	0.714028	0.265153
	C65	C	-0.063628	0.696692	0.622991
	H66	H	-0.108538	0.814168	0.715262
	H67	H	-0.064414	0.858312	0.534241
	H68	H	-0.106692	0.697853	0.715524
	H69	H	-0.063261	0.654128	0.532559
	C70	C	0.290433	0.738784	1.489496
	C71	C	0.709211	0.736823	1.494620
	C72	C	0.511497	0.959669	0.259743
	C73	C	0.513200	0.541103	0.254768
	C74	C	0.314306	0.796042	1.422109
	C75	C	0.685021	0.794169	1.421005
	C76	C	0.454179	0.936253	0.328438
	C77	C	0.455903	0.565651	0.327506
	C78	C	0.358861	0.798287	1.261480
	C79	C	0.641697	0.796289	1.261824
	C80	C	0.451910	0.891792	0.489391
	C81	C	0.453829	0.608932	0.486794
	C82	C	0.381371	0.744845	1.159002
	C83	C	0.621263	0.742517	1.164873
	C84	C	0.505411	0.868864	0.590696
	C85	C	0.507580	0.628946	0.584809
	C86	C	0.351537	0.688994	1.216118
	C87	C	0.650829	0.686127	1.229604
	C88	C	0.561387	0.898230	0.532163
	C89	C	0.563861	0.598948	0.521205
	C90	C	0.307722	0.685580	1.378251
	C91	C	0.693227	0.682958	1.390977
	C92	C	0.564805	0.941995	0.369896
	C93	C	0.566999	0.556635	0.359577
	H94	H	0.297846	0.839259	1.490793
	H95	H	0.700236	0.837703	1.482738
	H96	H	0.410945	0.952997	0.260493
	H97	H	0.412345	0.550797	0.265042
	H98	H	0.376247	0.843385	1.211266
	H99	H	0.623104	0.841586	1.211220
	H100	H	0.406755	0.874799	0.540633
	H101	H	0.408584	0.627881	0.536516
	H102	H	0.363244	0.646386	1.134797
	H103	H	0.639778	0.642930	1.155527
	H104	H	0.604095	0.886191	0.612491
	H105	H	0.607008	0.609644	0.596198
	H106	H	0.286992	0.641269	1.420951
	H107	H	0.714001	0.638242	1.438334
	H108	H	0.609205	0.962357	0.326167
	H109	H	0.611653	0.535592	0.312838
	N110	N	0.248025	0.730875	1.670604
	N111	N	0.749789	0.728894	1.676536
	N112	N	0.519488	1.001707	0.077711
	N113	N	0.521261	0.500825	0.072160
	O114	O	0.214732	0.682348	1.678749
	O115	O	0.568275	1.034605	0.068291
	O116	O	0.572500	0.469400	0.055861
	O117	O	0.780496	0.677272	1.694345
	C118	C	0.503907	0.809305	0.736429
	C119	C	0.504980	0.748762	0.608003
	C120	C	0.505518	0.686242	0.733089
	H121	H	0.462889	0.750166	0.515193
	H122	H	0.546923	0.748985	0.509960
	C123	C	0.563611	0.686586	0.874776
	C124	C	0.563966	0.744658	1.016589
	H125	H	0.563035	0.643013	0.965227
	H126	H	0.607164	0.687166	0.784227
	C127	C	0.562301	0.804641	0.876773
	H128	H	0.561915	0.847196	0.967265
	H129	H	0.605395	0.803470	0.784407
	C130	C	0.443436	0.806763	0.874789
	C131	C	0.445565	0.687900	0.873011
	C132	C	0.440915	0.746307	1.013262
	H133	H	0.402998	0.688265	0.782574
	H134	H	0.446737	0.644821	0.965477
	C135	C	0.501459	0.745224	1.141677
	H136	H	0.441912	0.848889	0.967120
	H137	H	0.401326	0.808219	0.782372
	H138	H	0.500085	0.787323	1.234460
	H139	H	0.501229	0.703287	1.239748
	C140	C	0.011697	0.457819	-0.243663
	C141	C	0.013409	0.041955	-0.248230
	C142	C	-0.207881	0.238062	0.994365
	C143	C	0.207735	0.236512	0.998915
	C144	C	-0.045763	0.435204	-0.173105
	C145	C	-0.044040	0.064792	-0.171067
	C146	C	-0.185664	0.295567	0.922688
	C147	C	0.184595	0.293942	0.922522
	C148	C	-0.048088	0.390910	-0.011706
	C149	C	-0.046178	0.107815	-0.011011
	C150	C	-0.141461	0.297913	0.761010
	C151	C	0.141616	0.296052	0.762348
	C152	C	0.005374	0.368260	0.090410
	C153	C	0.007625	0.128376	0.085504
	C154	C	-0.118462	0.244399	0.659896
	C155	C	0.121426	0.242266	0.664880
	C156	C	0.061231	0.398041	0.033033
	C157	C	0.064011	0.098959	0.020082
	C158	C	-0.147843	0.188430	0.718478
	C159	C	0.151223	0.185965	0.729300
	C160	C	0.064685	0.441558	-0.129945
	C161	C	0.067167	0.056922	-0.142293
	C162	C	-0.191306	0.184973	0.881576
	C163	C	0.193175	0.182823	0.891931
	H164	H	-0.088944	0.451993	-0.241294
	H165	H	-0.087541	0.049245	-0.232164
	H166	H	-0.202680	0.338764	0.990256
	H167	H	0.199825	0.337467	0.984275
	H168	H	-0.093253	0.373998	0.039760
	H169	H	-0.091521	0.125855	0.041194
	H170	H	-0.124885	0.343125	0.708659
	H171	H	0.123267	0.341362	0.710916
	H172	H	0.103770	0.386637	0.115125
	H173	H	0.107170	0.109687	0.094920
	H174	H	-0.136167	0.145800	0.637232
	H175	H	0.140811	0.142854	0.653635
	H176	H	0.108938	0.462442	-0.172382
	H177	H	0.111834	0.036054	-0.189666
	H178	H	-0.211873	0.140636	0.924889
	H179	H	0.214277	0.138205	0.938770
	N180	N	0.019229	0.501236	-0.422316
	N181	N	0.021010	0.000385	-0.427733
	N182	N	-0.250972	0.230427	1.173840
	N183	N	0.249007	0.228788	1.179133
	O184	O	0.067515	0.534862	-0.429313
	O185	O	-0.284237	0.181896	1.181923
	O186	O	0.280752	0.177727	1.194662
	O187	O	0.072461	-0.030637	-0.444767
	C188	C	-0.058990	0.245890	0.513789
	C189	C	0.001606	0.244836	0.641998
	C190	C	0.064088	0.244277	0.516713
	H191	H	0.000236	0.286933	0.734786
	H192	H	0.001406	0.202896	0.740090
	C193	C	0.063682	0.186125	0.375252
	C194	C	0.005553	0.185717	0.233661
	H195	H	0.107213	0.186657	0.284632
	H196	H	0.063140	0.142606	0.465974
	C197	C	-0.054380	0.187455	0.373638
	H198	H	-0.096951	0.187824	0.283239
	H199	H	-0.053203	0.144410	0.466233
	C200	C	-0.056489	0.306314	0.375204
	C201	C	0.062359	0.304191	0.376626
	C202	C	0.003916	0.308795	0.236540
	H203	H	0.062014	0.346774	0.466966
	H204	H	0.105385	0.303009	0.283954
	C205	C	0.004975	0.248194	0.108357
	H206	H	-0.098615	0.307812	0.282906
	H207	H	-0.057932	0.348432	0.467556
	H208	H	-0.037126	0.249543	0.015577
	H209	H	0.046905	0.248397	0.010256
	C210	C	0.289628	0.264532	-0.494299
	C211	C	0.487434	0.041849	0.740513
	C212	C	0.485727	0.460575	0.744756
	C213	C	0.708453	0.262569	-0.489491
	C214	C	0.313833	0.207204	-0.420591
	C215	C	0.434129	0.059492	0.630296
	C216	C	0.543028	0.436076	0.671869
	C217	C	0.691016	0.315849	-0.378840
	C218	C	0.357200	0.205132	-0.261547
	C219	C	0.437540	0.103254	0.468013
	C220	C	0.545092	0.392706	0.512834
	C221	C	0.647204	0.312481	-0.216695
	C222	C	0.377645	0.258932	-0.164779
	C223	C	0.493505	0.132652	0.409550
	C224	C	0.491326	0.372566	0.415186
	C225	C	0.617537	0.256598	-0.158911
	C226	C	0.348081	0.315309	-0.229656
	C227	C	0.547005	0.109772	0.510970
	C228	C	0.435026	0.402482	0.479015
	C229	C	0.640191	0.203102	-0.260809
	C230	C	0.305630	0.318432	-0.390889
	C231	C	0.544744	0.065305	0.671901
	C232	C	0.431899	0.444889	0.640378
	C233	C	0.684732	0.205308	-0.421490
	H234	H	0.298590	0.163663	-0.482216
	H235	H	0.389735	0.039114	0.673993
	H236	H	0.586582	0.451049	0.734072
	H237	H	0.711624	0.360176	-0.422039
	H238	H	0.375796	0.159847	-0.210840
	H239	H	0.394836	0.115277	0.387640
	H240	H	0.590341	0.373824	0.462910
	H241	H	0.635361	0.355150	-0.135882
	H242	H	0.359159	0.358524	-0.155729
	H243	H	0.592154	0.126815	0.459858
	H244	H	0.391863	0.391680	0.404304
	H245	H	0.622930	0.157994	-0.210174
	H246	H	0.284810	0.363123	-0.438295
	H247	H	0.587981	0.048591	0.739885
	H248	H	0.387237	0.465905	0.687150
	H249	H	0.701308	0.162063	-0.489742
	N250	N	0.248718	0.272293	-0.675408
	N251	N	0.479446	-0.000190	0.922548
	N252	N	0.477801	0.501197	0.926583
	N253	N	0.750800	0.270412	-0.670765
	O254	O	0.217638	0.323723	-0.692520
	O255	O	0.426236	0.532016	0.944057
	O256	O	0.783994	0.319007	-0.679475
	O257	O	0.430665	-0.033099	0.931968
	C258	C	0.493393	0.315252	0.266975
	C259	C	0.553351	0.313575	0.127060
	C260	C	0.557994	0.255159	-0.013160
	H261	H	0.552172	0.356653	0.034585
	H262	H	0.595918	0.313213	0.217491
	C263	C	0.555464	0.194713	0.125352
	C264	C	0.495001	0.192195	0.263751
	H265	H	0.556957	0.152584	0.033036
	H266	H	0.597582	0.193242	0.217734
	C267	C	0.493930	0.252747	0.392120
	H268	H	0.451986	0.252532	0.490159
	H269	H	0.536022	0.251353	0.484930
	C270	C	0.435301	0.314901	0.125264
	C271	C	0.497452	0.256245	-0.141580
	C272	C	0.434945	0.256816	-0.016496
	H273	H	0.497686	0.298186	-0.239643
	H274	H	0.498825	0.214147	-0.234365
	C275	C	0.436606	0.196849	0.123407
	H276	H	0.391741	0.314323	0.215782
	H277	H	0.435880	0.358472	0.034791
	H278	H	0.393509	0.198037	0.215768
	H279	H	0.436989	0.154283	0.032971
