data_Molecule from CHK

_cell_length_a		34.250589
_cell_length_b		32.406703
_cell_length_c		7.116843
_cell_angle_alpha	84.632710
_cell_angle_beta	86.157900
_cell_angle_gamma	88.634513
_symmetry_space_group_name_H-M	'P 1'
_symmetry_Int_Tables_number		1

loop_
	_symmetry_equiv_pos_as_xyz
	x,y,z

loop_
	_atom_site_label
	_atom_site_type_symbol
	_atom_site_fract_x
	_atom_site_fract_y
	_atom_site_fract_z
	C0	C	-0.006411	0.763966	0.804737
	C1	C	-0.006658	0.647552	1.188641
	C2	C	-0.009180	0.880234	1.091209
	C3	C	-0.113040	0.760648	0.484926
	C4	C	0.106187	0.766064	0.455968
	C5	C	0.004065	0.685116	1.251395
	C6	C	-0.041255	0.868427	0.997956
	C7	C	-0.077409	0.774173	0.394261
	C8	C	0.091575	0.729010	0.549063
	C9	C	0.004426	0.721962	1.132479
	C10	C	-0.040715	0.831517	0.911340
	C11	C	-0.043717	0.776000	0.493429
	C12	C	0.055806	0.728164	0.655215
	C13	C	-0.006807	0.723555	0.946429
	C14	C	-0.007967	0.804670	0.909867
	C15	C	-0.043516	0.763230	0.686707
	C16	C	0.032631	0.763958	0.674719
	C17	C	-0.018851	0.685966	0.886903
	C18	C	0.024648	0.817576	0.996969
	C19	C	-0.079319	0.749706	0.776723
	C20	C	0.047130	0.800719	0.578102
	C21	C	-0.019061	0.649009	1.004131
	C22	C	0.024215	0.854311	1.085390
	C23	C	-0.113069	0.747928	0.679012
	C24	C	0.082975	0.801910	0.472088
	H25	H	0.012749	0.685117	1.394980
	H26	H	-0.067023	0.888540	0.995842
	H27	H	-0.076433	0.783773	0.244029
	H28	H	0.108035	0.700310	0.536623
	H29	H	0.013711	0.749784	1.187387
	H30	H	-0.066459	0.824118	0.841975
	H31	H	-0.017149	0.787498	0.418319
	H32	H	0.046364	0.698793	0.725972
	H33	H	-0.028036	0.685638	0.744152
	H34	H	0.051119	0.798548	0.992854
	H35	H	-0.080635	0.740261	0.927256
	H36	H	0.030055	0.829009	0.589670
	H37	H	-0.029594	0.621261	0.951909
	H38	H	0.050388	0.863492	1.146820
	H39	H	-0.139377	0.735669	0.754695
	H40	H	0.093903	0.831002	0.403345
	N41	N	-0.006919	0.610982	1.311711
	N42	N	-0.010427	0.918207	1.171716
	N43	N	-0.146084	0.757360	0.380619
	N44	N	0.143583	0.768462	0.361047
	C45	C	0.288793	0.751005	0.156764
	C46	C	0.212355	0.749277	0.335902
	C47	C	0.281081	0.728471	0.333165
	C48	C	0.220102	0.771968	0.159913
	C49	C	0.243608	0.727609	0.421070
	C50	C	0.257576	0.772822	0.071981
	H51	H	0.263066	0.790457	-0.063912
	H52	H	0.238138	0.710058	0.557185
	H53	H	0.196123	0.788833	0.093880
	H54	H	0.305076	0.711687	0.399437
	C55	C	0.328541	0.752168	0.062713
	H56	H	0.331531	0.770697	-0.074768
	C57	C	0.172670	0.748301	0.430618
	H58	H	0.169704	0.729740	0.568045
	C59	C	0.716781	0.744498	0.153060
	C60	C	0.784187	0.757207	0.348752
	C61	C	0.713475	0.758873	0.333767
	C62	C	0.787483	0.742577	0.168560
	C63	C	0.746512	0.765090	0.429943
	C64	C	0.754443	0.736351	0.072397
	H65	H	0.757451	0.724906	-0.066183
	H66	H	0.743498	0.776455	0.568689
	H67	H	0.816507	0.736132	0.106406
	H68	H	0.684452	0.765259	0.396071
	C69	C	0.681721	0.738747	0.049038
	H70	H	0.687272	0.728587	-0.093435
	C71	C	0.819230	0.763177	0.452497
	H72	H	0.813662	0.773192	0.595254
	C73	C	-0.000793	0.461964	0.615336
	C74	C	0.001640	0.536972	0.376723
	C75	C	0.012819	0.462504	0.424471
	C76	C	-0.012223	0.536393	0.567260
	C77	C	0.014020	0.499280	0.307297
	C78	C	-0.013430	0.499610	0.684447
	H79	H	-0.024359	0.499609	0.830878
	H80	H	0.024888	0.499259	0.160785
	H81	H	-0.022070	0.565387	0.620760
	H82	H	0.022616	0.433505	0.370872
	C83	C	-0.001626	0.422976	0.740516
	H84	H	-0.011922	0.425666	0.888480
	C85	C	0.002788	0.575960	0.251594
	H86	H	0.013033	0.573186	0.103606
	C87	C	-0.000366	1.037753	0.584550
	C88	C	0.001486	0.961429	0.419405
	C89	C	0.012329	1.000944	0.684462
	C90	C	-0.011331	0.998209	0.319707
	C91	C	0.013212	0.963499	0.603731
	C92	C	-0.012219	1.035660	0.400470
	H93	H	-0.021893	1.063775	0.320841
	H94	H	0.022755	0.935366	0.683671
	H95	H	-0.020487	0.996882	0.177488
	H96	H	0.021378	1.002233	0.826894
	C97	C	-0.001673	1.077473	0.671149
	H98	H	-0.013581	1.104324	0.586550
	C99	C	0.002304	0.921558	0.334264
	H100	H	0.013959	0.894708	0.419805
	C101	C	0.508078	0.736045	0.693632
	C102	C	0.395108	0.734508	1.039040
	C103	C	0.510362	0.851841	0.305151
	C104	C	0.510410	0.619489	0.409613
	C105	C	0.613904	0.742330	1.016746
	C106	C	0.409657	0.771379	0.943808
	C107	C	0.497779	0.814637	0.245860
	C108	C	0.542573	0.631304	0.502225
	C109	C	0.578643	0.727344	1.105979
	C110	C	0.445591	0.772090	0.839044
	C111	C	0.496950	0.777957	0.365950
	C112	C	0.542189	0.668323	0.587956
	C113	C	0.545177	0.724668	1.005963
	C114	C	0.469036	0.736351	0.823421
	C115	C	0.508809	0.776317	0.550959
	C116	C	0.509544	0.695311	0.588785
	C117	C	0.545150	0.736784	0.812017
	C118	C	0.454497	0.699744	0.921322
	C119	C	0.520903	0.813929	0.610007
	C120	C	0.476758	0.682264	0.503436
	C121	C	0.580964	0.750318	0.722186
	C122	C	0.418523	0.698701	1.026193
	C123	C	0.521673	0.850706	0.491492
	C124	C	0.477045	0.645448	0.415726
	C125	C	0.614444	0.753117	0.820890
	H126	H	0.392975	0.800038	0.952931
	H127	H	0.488390	0.814712	0.103456
	H128	H	0.568243	0.611053	0.505022
	H129	H	0.577600	0.717911	1.256362
	H130	H	0.454905	0.801266	0.765756
	H131	H	0.486757	0.750314	0.312812
	H132	H	0.567920	0.675651	0.657611
	H133	H	0.518718	0.712805	1.080804
	H134	H	0.471699	0.671467	0.912017
	H135	H	0.529868	0.814378	0.753086
	H136	H	0.450294	0.701297	0.507955
	H137	H	0.582476	0.759081	0.571061
	H138	H	0.407637	0.669733	1.096476
	H139	H	0.532169	0.878488	0.543579
	H140	H	0.450785	0.636228	0.355146
	H141	H	0.640787	0.765167	0.744772
	N142	N	0.357621	0.732129	1.132942
	N143	N	0.509406	0.888596	0.183694
	N144	N	0.511532	0.581488	0.329320
	N145	N	0.647084	0.744851	1.120768
	C146	C	0.006795	0.235894	0.192379
	C147	C	0.009070	0.118072	-0.081564
	C148	C	0.112495	0.242843	0.515997
	C149	C	-0.107378	0.232953	0.526995
	C150	C	0.009123	0.351449	-0.197646
	C151	C	0.041767	0.131036	0.003691
	C152	C	0.077300	0.227633	0.605036
	C153	C	-0.092514	0.270224	0.437254
	C154	C	-0.003288	0.314150	-0.256715
	C155	C	0.041361	0.168386	0.086750
	C156	C	0.043867	0.224802	0.504928
	C157	C	-0.056242	0.271372	0.335423
	C158	C	-0.004140	0.277542	-0.136130
	C159	C	0.008510	0.195082	0.088029
	C160	C	0.043805	0.236931	0.311013
	C161	C	-0.032376	0.235888	0.321374
	C162	C	0.007242	0.276138	0.049629
	C163	C	-0.024208	0.181775	0.002967
	C164	C	0.079552	0.250756	0.221424
	C165	C	-0.046562	0.199231	0.420297
	C166	C	0.019270	0.313814	0.108255
	C167	C	-0.023939	0.144583	-0.081764
	C168	C	0.112996	0.253734	0.320234
	C169	C	-0.082899	0.197754	0.521983
	C170	C	0.020162	0.350495	-0.010902
	H171	H	0.067669	0.111116	0.005285
	H172	H	0.076319	0.218010	0.755239
	H173	H	-0.109464	0.298720	0.445948
	H174	H	-0.012450	0.314066	-0.399458
	H175	H	0.067288	0.176282	0.153435
	H176	H	0.017532	0.212546	0.579465
	H177	H	-0.046917	0.300705	0.263742
	H178	H	-0.014311	0.249845	-0.188866
	H179	H	-0.050666	0.200831	0.005961
	H180	H	0.081052	0.259568	0.070334
	H181	H	-0.028846	0.171224	0.413794
	H182	H	0.028044	0.314402	0.251583
	H183	H	-0.050109	0.135300	-0.142933
	H184	H	0.139291	0.265958	0.244295
	H185	H	-0.093370	0.168803	0.594211
	H186	H	0.030589	0.378324	0.041024
	N187	N	0.010881	0.080569	-0.165769
	N188	N	0.145676	0.245394	0.620046
	N189	N	-0.144422	0.230613	0.625398
	N190	N	0.008407	0.388081	-0.319946
	C191	C	0.500802	0.462033	-0.083585
	C192	C	0.499512	0.538362	0.081363
	C193	C	0.488144	0.498894	-0.183188
	C194	C	0.511940	0.501461	0.181430
	C195	C	0.487536	0.536340	-0.102554
	C196	C	0.512560	0.464009	0.100747
	H197	H	0.521980	0.435812	0.180578
	H198	H	0.478059	0.564520	-0.182355
	H199	H	0.521069	0.502710	0.323746
	H200	H	0.478948	0.497652	-0.325390
	C201	C	0.501635	0.422274	-0.169752
	H202	H	0.513241	0.395301	-0.084846
	C203	C	0.498771	0.578198	0.166761
	H204	H	0.487182	0.605099	0.081295
	C205	C	0.500407	1.037771	0.885097
	C206	C	0.499301	0.962436	1.121414
	C207	C	0.486619	1.036685	1.075887
	C208	C	0.512911	0.963488	0.930385
	C209	C	0.486065	0.999744	1.191936
	C210	C	0.513470	1.000429	0.814345
	H211	H	0.524301	1.000810	0.667632
	H212	H	0.475137	0.999344	1.338513
	H213	H	0.523188	0.934755	0.875700
	H214	H	0.476254	1.065402	1.130429
	C215	C	0.500601	1.076900	0.760973
	H216	H	0.510822	1.074526	0.612664
	C217	C	0.498920	0.923264	1.245264
	H218	H	0.488695	0.925617	1.393581
	C219	C	0.282894	0.256523	0.849194
	C220	C	0.215395	0.244660	0.652605
	C221	C	0.286077	0.241848	0.669091
	C222	C	0.212200	0.259153	0.833076
	C223	C	0.252999	0.236040	0.572496
	C224	C	0.245279	0.264964	0.929664
	H225	H	0.242347	0.276394	1.068283
	H226	H	0.255927	0.224508	0.434086
	H227	H	0.183227	0.265930	0.894921
	H228	H	0.315045	0.234970	0.607454
	C229	C	0.317980	0.261815	0.953776
	H230	H	0.312475	0.271837	1.096524
	C231	C	0.180298	0.239125	0.548476
	H232	H	0.185795	0.228889	0.406110
	C233	C	0.710964	0.248154	0.841551
	C234	C	0.786819	0.249720	0.655977
	C235	C	0.718178	0.271018	0.665582
	C236	C	0.779639	0.226992	0.832305
	C237	C	0.755362	0.271791	0.574507
	C238	C	0.742453	0.226211	0.923355
	H239	H	0.737400	0.208515	1.059397
	H240	H	0.760440	0.289583	0.438715
	H241	H	0.803815	0.209993	0.895975
	H242	H	0.694024	0.288110	0.602163
	C243	C	0.671629	0.247395	0.939986
	H244	H	0.669125	0.228830	1.077511
	C245	C	0.826242	0.250807	0.558446
	H246	H	0.828770	0.269432	0.421086
	C247	C	0.491543	0.263825	0.310547
	C248	C	0.385770	0.257639	-0.013235
	C249	C	0.605411	0.265795	-0.026798
	C250	C	0.489038	0.148273	0.700524
	C251	C	0.490254	0.381697	0.583750
	C252	C	0.421056	0.272627	-0.102178
	C253	C	0.590351	0.228661	0.063429
	C254	C	0.501589	0.185528	0.759433
	C255	C	0.457375	0.368944	0.499245
	C256	C	0.454505	0.275246	-0.001980
	C257	C	0.554223	0.227844	0.166526
	C258	C	0.502465	0.222138	0.638873
	C259	C	0.457465	0.331587	0.416331
	C260	C	0.454515	0.263056	0.191894
	C261	C	0.530738	0.263565	0.181770
	C262	C	0.490905	0.223599	0.453406
	C263	C	0.490140	0.304651	0.414751
	C264	C	0.418683	0.249471	0.281405
	C265	C	0.545019	0.300056	0.081709
	C266	C	0.478643	0.185984	0.395075
	C267	C	0.523039	0.317748	0.499069
	C268	C	0.385208	0.246739	0.182535
	C269	C	0.581231	0.301207	-0.021112
	C270	C	0.477771	0.149289	0.514148
	C271	C	0.523102	0.354963	0.583435
	H272	H	0.422123	0.282141	-0.252490
	H273	H	0.606976	0.199992	0.053523
	H274	H	0.510784	0.185585	0.902119
	H275	H	0.431553	0.388983	0.498520
	H276	H	0.480957	0.287153	-0.076681
	H277	H	0.544649	0.198555	0.237696
	H278	H	0.512611	0.249837	0.691686
	H279	H	0.431356	0.323758	0.350949
	H280	H	0.417141	0.240641	0.432485
	H281	H	0.527520	0.328204	0.088505
	H282	H	0.469722	0.185443	0.251970
	H283	H	0.549374	0.298502	0.495790
	H284	H	0.358840	0.234690	0.258420
	H285	H	0.591834	0.330050	-0.093888
	H286	H	0.467231	0.121480	0.462479
	H287	H	0.549410	0.364090	0.643901
	N288	N	0.352588	0.255343	-0.117495
	N289	N	0.642347	0.267802	-0.126339
	N290	N	0.490025	0.111567	0.822322
	N291	N	0.488833	0.419238	0.667620
