data_Molecule from CHK

_cell_length_a		39.171452
_cell_length_b		39.754389
_cell_length_c		24.740994
_cell_angle_alpha	90.880366
_cell_angle_beta	91.082360
_cell_angle_gamma	81.458846
_symmetry_space_group_name_H-M	'P 1'
_symmetry_Int_Tables_number		1

loop_
	_symmetry_equiv_pos_as_xyz
	x,y,z

loop_
	_atom_site_label
	_atom_site_type_symbol
	_atom_site_fract_x
	_atom_site_fract_y
	_atom_site_fract_z
	C0	C	0.019340	0.741503	0.756117
	C1	C	0.016426	0.654507	0.865392
	C2	C	0.020377	0.839430	0.844696
	C3	C	-0.074553	0.744390	0.651404
	C4	C	0.114397	0.728995	0.658159
	C5	C	-0.011615	0.680584	0.859546
	C6	C	0.028034	0.835609	0.789677
	C7	C	-0.052102	0.714179	0.661708
	C8	C	0.114894	0.736617	0.713749
	C9	C	-0.010215	0.707646	0.824806
	C10	C	0.027398	0.804634	0.762642
	C11	C	-0.022869	0.713769	0.694894
	C12	C	0.084733	0.740117	0.743788
	C13	C	0.019288	0.710516	0.794868
	C14	C	0.019785	0.775673	0.789025
	C15	C	-0.014221	0.743413	0.719681
	C16	C	0.052544	0.736490	0.720346
	C17	C	0.046774	0.683705	0.799581
	C18	C	0.013844	0.779321	0.844662
	C19	C	-0.037116	0.773417	0.710311
	C20	C	0.052195	0.729361	0.664703
	C21	C	0.045430	0.656301	0.833759
	C22	C	0.014031	0.810338	0.871908
	C23	C	-0.066527	0.774029	0.677229
	C24	C	0.082280	0.725611	0.634436
	H25	H	-0.034726	0.679190	0.882325
	H26	H	0.034090	0.857455	0.768113
	H27	H	-0.058000	0.690765	0.643208
	H28	H	0.139135	0.739073	0.734124
	H29	H	-0.032574	0.727104	0.820345
	H30	H	0.032988	0.802681	0.719862
	H31	H	-0.006213	0.689884	0.701994
	H32	H	0.085912	0.745883	0.786704
	H33	H	0.069676	0.683850	0.775910
	H34	H	0.009491	0.757590	0.867858
	H35	H	-0.032173	0.796935	0.729287
	H36	H	0.028085	0.727055	0.644011
	H37	H	0.067346	0.636231	0.836780
	H38	H	0.009817	0.811927	0.915108
	H39	H	-0.082714	0.798207	0.670821
	H40	H	0.081142	0.720265	0.591375
	N41	N	0.014249	0.626828	0.899180
	N42	N	0.021496	0.870676	0.871578
	N43	N	-0.103746	0.742809	0.618362
	N44	N	0.143612	0.726456	0.625494
	C45	C	0.346455	0.729886	0.428824
	C46	C	0.329313	0.761543	0.446449
	C47	C	0.300602	0.763897	0.479332
	C48	C	0.287538	0.734716	0.496048
	C49	C	0.304779	0.703044	0.478171
	C50	C	0.333607	0.700658	0.445514
	C51	C	0.256790	0.737247	0.531347
	C52	C	0.231856	0.715454	0.523971
	C53	C	0.203058	0.717968	0.556694
	C54	C	0.197898	0.742241	0.598644
	C55	C	0.222732	0.764021	0.606284
	C56	C	0.251434	0.761606	0.573354
	H57	H	0.184000	0.701075	0.550047
	H58	H	0.346495	0.675892	0.432650
	H59	H	0.219325	0.782985	0.638433
	H60	H	0.338885	0.784385	0.433873
	H61	H	0.234755	0.696838	0.491295
	H62	H	0.295781	0.680022	0.491186
	H63	H	0.287575	0.788766	0.491434
	H64	H	0.270492	0.778381	0.580781
	C65	C	0.377271	0.727325	0.394602
	H66	H	0.389146	0.701360	0.384089
	C67	C	0.167168	0.745171	0.633045
	H68	H	0.165486	0.764832	0.664963
	C69	C	0.695777	0.749460	0.400920
	C70	C	0.690820	0.760986	0.454487
	C71	C	0.718700	0.763569	0.489199
	C72	C	0.752922	0.754614	0.472126
	C73	C	0.757752	0.743039	0.418401
	C74	C	0.729875	0.740625	0.383559
	C75	C	0.782796	0.757388	0.509356
	C76	C	0.812685	0.732949	0.508762
	C77	C	0.840519	0.735496	0.543596
	C78	C	0.839934	0.762725	0.580493
	C79	C	0.810166	0.787194	0.581297
	C80	C	0.782259	0.784526	0.546649
	H81	H	0.863253	0.716263	0.542645
	H82	H	0.734381	0.731796	0.342287
	H83	H	0.809082	0.808477	0.609426
	H84	H	0.664629	0.767882	0.468576
	H85	H	0.813723	0.711298	0.481373
	H86	H	0.783813	0.736568	0.403646
	H87	H	0.713971	0.771965	0.530621
	H88	H	0.759850	0.804119	0.547497
	C89	C	0.666128	0.747068	0.363971
	H90	H	0.672612	0.738445	0.322570
	C91	C	0.869532	0.765469	0.617396
	H92	H	0.866728	0.787993	0.644022
	C93	C	0.007132	0.421821	0.080632
	C94	C	-0.015160	0.428930	0.035850
	C95	C	-0.013299	0.456827	0.003333
	C96	C	0.010612	0.479206	0.014534
	C97	C	0.032807	0.472095	0.059563
	C98	C	0.031311	0.443899	0.091620
	C99	C	0.012344	0.509250	-0.019989
	C100	C	0.014323	0.541509	0.002862
	C101	C	0.015561	0.569651	-0.029407
	C102	C	0.015497	0.566740	-0.086013
	C103	C	0.013785	0.534511	-0.108998
	C104	C	0.012011	0.506477	-0.076715
	H105	H	0.016738	0.594413	-0.011053
	H106	H	0.048846	0.438869	0.125923
	H107	H	0.013632	0.531663	-0.152631
	H108	H	-0.033983	0.412106	0.026841
	H109	H	0.014077	0.544493	0.046482
	H110	H	0.051830	0.488691	0.068556
	H111	H	-0.031066	0.461966	-0.030675
	H112	H	0.010976	0.481766	-0.095297
	C113	C	0.005412	0.392003	0.114757
	H114	H	0.025836	0.386476	0.145806
	C115	C	0.016857	0.596564	-0.120284
	H116	H	0.019856	0.591508	-0.163874
	C117	C	-0.001826	0.072802	0.080077
	C118	C	-0.029417	0.068281	0.045042
	C119	C	-0.029682	0.038080	0.015955
	C120	C	-0.002173	0.011118	0.020039
	C121	C	0.025560	0.015851	0.054840
	C122	C	0.025628	0.045881	0.084489
	C123	C	-0.002530	-0.021287	-0.010883
	C124	C	0.026915	-0.037429	-0.037639
	C125	C	0.026499	-0.067711	-0.066463
	C126	C	-0.003217	-0.083549	-0.069196
	C127	C	-0.032653	-0.067571	-0.042392
	C128	C	-0.032357	-0.037060	-0.014177
	H129	H	0.049400	-0.079667	-0.087170
	H130	H	0.047198	0.048766	0.111366
	H131	H	-0.055932	-0.079291	-0.044001
	H132	H	-0.050805	0.088863	0.041154
	H133	H	0.050112	-0.025564	-0.036588
	H134	H	0.046873	-0.004732	0.059340
	H135	H	-0.051154	0.035398	-0.011249
	H136	H	-0.055274	-0.025403	0.006751
	C137	C	-0.001911	0.104515	0.111936
	H138	H	0.019335	0.104823	0.141521
	C139	C	-0.003687	-0.115815	-0.099325
	H140	H	-0.027180	-0.127651	-0.095854
	C141	C	0.510764	0.753558	0.245253
	C142	C	0.418597	0.752693	0.347124
	C143	C	0.505141	0.847742	0.148712
	C144	C	0.513332	0.661065	0.141264
	C145	C	0.606051	0.753088	0.345959
	C146	C	0.423111	0.781700	0.318041
	C147	C	0.503267	0.816135	0.123691
	C148	C	0.542616	0.667249	0.171106
	C149	C	0.574287	0.750448	0.369526
	C150	C	0.451838	0.782457	0.285738
	C151	C	0.504715	0.786359	0.153398
	C152	C	0.542316	0.696181	0.203950
	C153	C	0.544224	0.750217	0.338398
	C154	C	0.477818	0.754340	0.280886
	C155	C	0.508402	0.786363	0.209830
	C156	C	0.512793	0.720620	0.208719
	C157	C	0.544070	0.752979	0.281994
	C158	C	0.472656	0.725032	0.308630
	C159	C	0.511630	0.817780	0.234506
	C160	C	0.483374	0.713989	0.179588
	C161	C	0.575586	0.757111	0.258828
	C162	C	0.443994	0.724049	0.340932
	C163	C	0.510128	0.847682	0.205100
	C164	C	0.483442	0.685117	0.146737
	C165	C	0.605806	0.757217	0.289653
	H166	H	0.403456	0.803917	0.321004
	H167	H	0.500458	0.815240	0.080015
	H168	H	0.565848	0.648730	0.168428
	H169	H	0.573519	0.748341	0.413128
	H170	H	0.453582	0.805330	0.263535
	H171	H	0.503453	0.762745	0.131723
	H172	H	0.565451	0.699207	0.226873
	H173	H	0.520481	0.748393	0.358979
	H174	H	0.491921	0.702557	0.304911
	H175	H	0.515652	0.818551	0.277969
	H176	H	0.459917	0.732146	0.182887
	H177	H	0.576141	0.760588	0.215481
	H178	H	0.442187	0.700816	0.362187
	H179	H	0.513572	0.870816	0.226761
	H180	H	0.460112	0.681926	0.124324
	H181	H	0.629065	0.761351	0.269436
	N182	N	0.388886	0.753641	0.378174
	N183	N	0.504532	0.876329	0.116033
	N184	N	0.514932	0.631071	0.110150
	N185	N	0.635023	0.754166	0.379736
	C186	C	-0.022123	0.252553	0.238753
	C187	C	-0.024940	0.159984	0.137330
	C188	C	0.073768	0.249206	0.339033
	C189	C	-0.117542	0.256790	0.334188
	C190	C	-0.019154	0.344991	0.141536
	C191	C	-0.023626	0.158876	0.194001
	C192	C	0.046945	0.276909	0.340756
	C193	C	-0.118181	0.257492	0.277584
	C194	C	0.008496	0.318185	0.143415
	C195	C	-0.022919	0.188369	0.225048
	C196	C	0.017058	0.277276	0.308917
	C197	C	-0.087800	0.255642	0.248451
	C198	C	0.006842	0.289393	0.174266
	C199	C	-0.022212	0.220159	0.201547
	C200	C	0.011623	0.249966	0.274866
	C201	C	-0.055370	0.254580	0.274005
	C202	C	-0.022417	0.285469	0.204098
	C203	C	-0.023781	0.221079	0.144909
	C204	C	0.038545	0.222526	0.272988
	C205	C	-0.054900	0.253610	0.330664
	C206	C	-0.049809	0.312513	0.202250
	C207	C	-0.024935	0.191742	0.113525
	C208	C	0.068528	0.221989	0.304574
	C209	C	-0.085166	0.255005	0.360163
	C210	C	-0.048530	0.341239	0.170971
	H211	H	-0.024381	0.134868	0.213778
	H212	H	0.049173	0.298937	0.366020
	H213	H	-0.142882	0.258838	0.256580
	H214	H	0.031347	0.319896	0.120202
	H215	H	-0.023065	0.187012	0.268767
	H216	H	-0.002793	0.299405	0.309972
	H217	H	-0.089068	0.255083	0.204640
	H218	H	0.028724	0.269205	0.175387
	H219	H	-0.024656	0.245118	0.124640
	H220	H	0.036622	0.201320	0.245788
	H221	H	-0.030506	0.251370	0.352488
	H222	H	-0.072555	0.311651	0.225943
	H223	H	-0.026027	0.193185	0.069783
	H224	H	0.088798	0.200251	0.302383
	H225	H	-0.083779	0.255052	0.403954
	H226	H	-0.070311	0.361548	0.169735
	N227	N	-0.024944	0.130559	0.105101
	N228	N	0.104345	0.246186	0.370032
	N229	N	-0.148535	0.259904	0.362716
	N230	N	-0.018700	0.373693	0.109254
	C231	C	0.501580	0.432984	0.901810
	C232	C	0.481218	0.437273	0.948156
	C233	C	0.479226	0.466686	0.979881
	C234	C	0.497591	0.493228	0.966949
	C235	C	0.518011	0.488773	0.920486
	C236	C	0.519888	0.459428	0.888582
	C237	C	0.495367	0.524795	1.000893
	C238	C	0.524323	0.541254	1.010630
	C239	C	0.522218	0.570667	1.042392
	C240	C	0.491006	0.585191	1.065723
	C241	C	0.462015	0.568877	1.056165
	C242	C	0.464182	0.539375	1.024610
	H243	H	0.544915	0.582851	1.049618
	H244	H	0.535690	0.456792	0.852848
	H245	H	0.437590	0.579605	1.073707
	H246	H	0.466942	0.417061	0.959018
	H247	H	0.548963	0.530357	0.993980
	H248	H	0.531967	0.509019	0.908765
	H249	H	0.463766	0.468903	1.015979
	H250	H	0.441211	0.527697	1.017114
	C251	C	0.503404	0.401905	0.867807
	H252	H	0.519629	0.401186	0.831997
	C253	C	0.488674	0.616409	1.099462
	H254	H	0.463070	0.625683	1.115758
	C255	C	0.505032	1.076820	-0.080947
	C256	C	0.481780	1.079244	-0.038135
	C257	C	0.480804	1.052082	-0.003642
	C258	C	0.502966	1.021118	-0.010344
	C259	C	0.526261	1.018862	-0.053292
	C260	C	0.527340	1.046045	-0.087679
	C261	C	0.502005	0.991931	0.026522
	C262	C	0.507169	0.958148	0.007122
	C263	C	0.506483	0.930874	0.041466
	C264	C	0.500735	0.936004	0.096976
	C265	C	0.495402	0.969663	0.116565
	C266	C	0.495972	0.996941	0.082141
	H267	H	0.510430	0.905035	0.025582
	H268	H	0.545682	1.043590	-0.120268
	H269	H	0.490912	0.974306	0.159302
	H270	H	0.464345	1.102848	-0.032391
	H271	H	0.511068	0.953297	-0.035702
	H272	H	0.544248	0.995639	-0.058915
	H273	H	0.462065	1.054582	0.028378
	H274	H	0.492467	1.022613	0.098635
	C275	C	0.506294	1.105631	-0.117500
	H276	H	0.525503	1.101065	-0.149542
	C277	C	0.500266	0.907002	0.133494
	H278	H	0.495456	0.913755	0.176112
	C279	C	0.306977	0.239247	0.582963
	C280	C	0.291479	0.271635	0.566448
	C281	C	0.260243	0.276194	0.537819
	C282	C	0.242925	0.248595	0.524220
	C283	C	0.258608	0.216173	0.540852
	C284	C	0.289816	0.211597	0.569591
	C285	C	0.209353	0.253512	0.493700
	C286	C	0.201045	0.229371	0.455397
	C287	C	0.169779	0.234012	0.426844
	C288	C	0.145180	0.262969	0.435280
	C289	C	0.153308	0.287172	0.473424
	C290	C	0.184617	0.282541	0.501882
	H291	H	0.164025	0.215142	0.397267
	H292	H	0.301139	0.186331	0.582169
	H293	H	0.134732	0.309753	0.480776
	H294	H	0.304419	0.293287	0.576354
	H295	H	0.219725	0.207028	0.447054
	H296	H	0.245653	0.194397	0.532095
	H297	H	0.249387	0.301487	0.524764
	H298	H	0.189827	0.301362	0.531871
	C299	C	0.339918	0.234460	0.614022
	H300	H	0.349594	0.208189	0.625554
	C301	C	0.112079	0.268053	0.404623
	H302	H	0.094892	0.291684	0.414056
	C303	C	0.658195	0.259922	0.582553
	C304	C	0.671511	0.228839	0.557870
	C305	C	0.701915	0.225303	0.528728
	C306	C	0.720226	0.252796	0.522349
	C307	C	0.706714	0.283934	0.546955
	C308	C	0.676555	0.287370	0.576676
	C309	C	0.752685	0.249167	0.490935
	C310	C	0.758866	0.274197	0.454336
	C311	C	0.789101	0.270829	0.424834
	C312	C	0.814827	0.242504	0.431058
	C313	C	0.808809	0.217469	0.467641
	C314	C	0.778356	0.220645	0.496638
	H315	H	0.793259	0.290305	0.396486
	H316	H	0.666839	0.311613	0.595496
	H317	H	0.828260	0.195313	0.473016
	H318	H	0.657619	0.207392	0.562030
	H319	H	0.739270	0.296162	0.448260
	H320	H	0.720621	0.305407	0.543431
	H321	H	0.711396	0.201119	0.509513
	H322	H	0.774448	0.201162	0.525097
	C323	C	0.626273	0.263634	0.614263
	H324	H	0.619328	0.288064	0.635654
	C325	C	0.846963	0.239067	0.399868
	H326	H	0.866779	0.217380	0.409870
	C327	C	0.484926	0.252975	0.751329
	C328	C	0.487051	0.161663	0.853676
	C329	C	0.487941	0.347772	0.848046
	C330	C	0.386517	0.256575	0.657154
	C331	C	0.577757	0.244105	0.648677
	C332	C	0.457550	0.186174	0.848249
	C333	C	0.492749	0.346395	0.791889
	C334	C	0.409788	0.226345	0.663379
	C335	C	0.578690	0.253537	0.703502
	C336	C	0.457313	0.214692	0.815993
	C337	C	0.491752	0.316324	0.762381
	C338	C	0.440618	0.225837	0.692882
	C339	C	0.549182	0.256193	0.734924
	C340	C	0.486690	0.220934	0.788454
	C341	C	0.485210	0.286250	0.786561
	C342	C	0.450495	0.255246	0.716791
	C343	C	0.517354	0.249283	0.713885
	C344	C	0.516335	0.196766	0.794985
	C345	C	0.480034	0.287937	0.842471
	C346	C	0.427430	0.285390	0.709625
	C347	C	0.516773	0.239577	0.659211
	C348	C	0.516749	0.168081	0.827076
	C349	C	0.480924	0.317928	0.872256
	C350	C	0.396583	0.286126	0.680150
	C351	C	0.546282	0.236563	0.627583
	H352	H	0.434397	0.182213	0.869097
	H353	H	0.496931	0.368948	0.770528
	H354	H	0.404209	0.202790	0.645237
	H355	H	0.602842	0.258493	0.721760
	H356	H	0.433778	0.232704	0.811887
	H357	H	0.495960	0.315991	0.719167
	H358	H	0.457649	0.201922	0.697816
	H359	H	0.550760	0.263607	0.777151
	H360	H	0.539722	0.200085	0.774503
	H361	H	0.475443	0.265519	0.863708
	H362	H	0.433100	0.308869	0.727793
	H363	H	0.492930	0.234390	0.640467
	H364	H	0.540759	0.150895	0.831684
	H365	H	0.476547	0.318431	0.915439
	H366	H	0.379368	0.309946	0.675315
	H367	H	0.545096	0.228694	0.585512
	N368	N	0.485989	0.133735	0.887313
	N369	N	0.487492	0.377326	0.879898
	N370	N	0.355328	0.259477	0.627657
	N371	N	0.607383	0.240080	0.616627
