data_Molecule from CHK

_cell_length_a		25.876803
_cell_length_b		25.873691
_cell_length_c		17.756469
_cell_angle_alpha	89.961244
_cell_angle_beta	89.962334
_cell_angle_gamma	93.330202
_symmetry_space_group_name_H-M	'P 1'
_symmetry_Int_Tables_number		1

loop_
	_symmetry_equiv_pos_as_xyz
	x,y,z

loop_
	_atom_site_label
	_atom_site_type_symbol
	_atom_site_fract_x
	_atom_site_fract_y
	_atom_site_fract_z
	C0	C	-0.182318	0.759405	0.541304
	C1	C	-0.006217	0.553516	0.929305
	C2	C	-0.010452	0.932107	0.958834
	C3	C	0.196242	0.757581	0.570263
	C4	C	-0.175832	0.714971	0.583975
	C5	C	0.034155	0.591255	0.936977
	C6	C	0.034054	0.925845	0.916239
	C7	C	0.158754	0.716978	0.562579
	C8	C	-0.133514	0.712498	0.632531
	C9	C	0.033811	0.637248	0.895556
	C10	C	0.036776	0.883539	0.867702
	C11	C	0.112822	0.716929	0.604207
	C12	C	-0.095499	0.753153	0.639236
	C13	C	-0.005803	0.647380	0.844624
	C14	C	-0.003690	0.845326	0.860943
	C15	C	0.102490	0.756384	0.655309
	C16	C	-0.101943	0.796470	0.593307
	C17	C	-0.045925	0.608788	0.838245
	C18	C	-0.047063	0.851532	0.906840
	C19	C	0.140846	0.796723	0.661734
	C20	C	-0.144233	0.799712	0.544916
	C21	C	-0.046363	0.562791	0.879623
	C22	C	-0.050560	0.893810	0.955192
	C23	C	0.186773	0.797546	0.620173
	H24	H	-0.203309	0.682117	0.579305
	H25	H	0.066390	0.584770	0.973631
	H26	H	0.066768	0.953488	0.920928
	H27	H	0.165360	0.684859	0.525766
	H28	H	-0.130462	0.677572	0.665349
	H29	H	0.065584	0.665990	0.902702
	H30	H	0.071741	0.880666	0.834924
	H31	H	0.084275	0.684985	0.597048
	H32	H	-0.073130	0.828538	0.595429
	H33	H	-0.077818	0.614118	0.800213
	H34	H	-0.078983	0.822555	0.904694
	H35	H	0.135374	0.828504	0.699912
	H36	H	-0.148353	0.833462	0.510010
	H37	H	-0.077639	0.533547	0.873470
	H38	H	-0.084372	0.897762	0.990022
	H39	H	0.215812	0.829013	0.626327
	N40	N	-0.225736	0.763676	0.488281
	N41	N	-0.008194	0.503694	0.969953
	N42	N	-0.015104	0.975569	1.011669
	N43	N	0.245922	0.760241	0.529239
	O44	O	-0.218103	0.790373	0.429091
	O45	O	-0.042033	0.967945	1.070648
	O46	O	0.284224	0.784929	0.559646
	O47	O	-0.033032	0.465387	0.939796
	C48	C	-0.001914	0.798462	0.806166
	C49	C	0.048626	0.800111	0.757984
	C50	C	0.051455	0.753847	0.702088
	H51	H	0.051061	0.836225	0.725804
	H52	H	0.081846	0.799764	0.795974
	C53	C	0.046828	0.703375	0.749965
	C54	C	-0.003601	0.698443	0.797912
	H55	H	0.047724	0.669374	0.713586
	H56	H	0.080865	0.702646	0.786291
	C57	C	-0.004719	0.746458	0.850443
	H58	H	-0.040015	0.742956	0.884392
	H59	H	0.027587	0.746922	0.890137
	C60	C	-0.048159	0.797816	0.750087
	C61	C	0.003392	0.754726	0.649621
	C62	C	-0.048585	0.751609	0.693957
	H63	H	0.006681	0.790052	0.615711
	H64	H	0.003085	0.722446	0.609887
	C65	C	-0.049926	0.701044	0.742084
	H66	H	-0.084886	0.795809	0.780699
	H67	H	-0.046369	0.834560	0.719509
	H68	H	-0.086009	0.698393	0.774319
	H69	H	-0.049423	0.667850	0.704060
	C70	C	0.299438	0.741271	0.422103
	C71	C	0.684160	0.744397	0.453811
	C72	C	0.508105	0.950881	0.078785
	C73	C	0.505635	0.565982	0.046042
	C74	C	0.346111	0.737077	0.460243
	C75	C	0.689644	0.747032	0.375734
	C76	C	0.512379	0.904307	0.040405
	C77	C	0.503086	0.560464	0.124118
	C78	C	0.392884	0.738884	0.420564
	C79	C	0.645946	0.749431	0.329775
	C80	C	0.510756	0.857440	0.079871
	C81	C	0.500681	0.604143	0.170118
	C82	C	0.395136	0.743565	0.341889
	C83	C	0.595481	0.748742	0.358909
	C84	C	0.506172	0.855003	0.158548
	C85	C	0.501280	0.654624	0.141030
	C86	C	0.347400	0.745505	0.304824
	C87	C	0.591193	0.746102	0.437587
	C88	C	0.504167	0.902650	0.195846
	C89	C	0.503841	0.658948	0.062351
	C90	C	0.300336	0.744134	0.343701
	C91	C	0.634466	0.744062	0.484320
	C92	C	0.505348	0.949795	0.157192
	C93	C	0.505887	0.615690	0.015575
	H94	H	0.346263	0.732077	0.520596
	H95	H	0.727452	0.746161	0.350250
	H96	H	0.517286	0.904297	-0.019965
	H97	H	0.504026	0.522646	0.149565
	H98	H	0.428184	0.736266	0.452584
	H99	H	0.651284	0.751587	0.269294
	H100	H	0.513423	0.822208	0.047694
	H101	H	0.498590	0.598774	0.230598
	H102	H	0.347005	0.748182	0.243931
	H103	H	0.553457	0.745546	0.463910
	H104	H	0.501565	0.902913	0.256748
	H105	H	0.504327	0.696701	0.036075
	H106	H	0.264029	0.745641	0.313946
	H107	H	0.630104	0.741913	0.544810
	H108	H	0.503755	0.986022	0.187143
	H109	H	0.507974	0.620074	-0.044917
	N110	N	0.249016	0.738756	0.461138
	N111	N	0.728156	0.741050	0.506043
	N112	N	0.510282	1.001428	0.040096
	N113	N	0.508972	0.521991	-0.006208
	O114	O	0.209967	0.718524	0.426939
	O115	O	0.530149	1.040527	0.074611
	O116	O	0.530628	0.530584	-0.069470
	O117	O	0.719569	0.719370	0.569292
	C118	C	0.503086	0.803204	0.203524
	C119	C	0.503671	0.754756	0.151273
	C120	C	0.500210	0.702184	0.194642
	H121	H	0.470858	0.755518	0.112586
	H122	H	0.539541	0.757083	0.118540
	C123	C	0.546902	0.703174	0.249952
	C124	C	0.547882	0.749803	0.305374
	H125	H	0.546109	0.667485	0.283013
	H126	H	0.582552	0.704058	0.216806
	C127	C	0.549658	0.800713	0.258536
	H128	H	0.550572	0.833520	0.297382
	H129	H	0.585524	0.804735	0.225927
	C130	C	0.452109	0.797817	0.250185
	C131	C	0.449353	0.700282	0.241603
	C132	C	0.446856	0.746787	0.296734
	H133	H	0.416503	0.699365	0.202839
	H134	H	0.445418	0.664374	0.274134
	C135	C	0.495366	0.746216	0.348849
	H136	H	0.449887	0.830419	0.288950
	H137	H	0.419459	0.800025	0.211509
	H138	H	0.494599	0.778991	0.387613
	H139	H	0.493132	0.710303	0.381493
	C140	C	0.011002	0.450584	0.077667
	C141	C	0.003164	0.065746	0.046033
	C142	C	-0.200964	0.239263	0.421382
	C143	C	0.183999	0.247605	0.454438
	C144	C	0.013938	0.403726	0.039578
	C145	C	0.001970	0.060306	0.124187
	C146	C	-0.154215	0.236343	0.459748
	C147	C	0.189496	0.248632	0.376290
	C148	C	0.011396	0.356983	0.079361
	C149	C	0.000281	0.104026	0.170261
	C150	C	-0.107374	0.238746	0.420209
	C151	C	0.145804	0.250082	0.330125
	C152	C	0.006426	0.354852	0.158006
	C153	C	0.001163	0.154523	0.141190
	C154	C	-0.105040	0.243572	0.341556
	C155	C	0.095284	0.249130	0.359093
	C156	C	0.004485	0.402654	0.194896
	C157	C	0.003581	0.158835	0.062498
	C158	C	-0.152740	0.245461	0.304388
	C159	C	0.090911	0.246855	0.437783
	C160	C	0.006558	0.449704	0.155919
	C161	C	0.004870	0.115538	0.015672
	C162	C	-0.199874	0.243531	0.343111
	C163	C	0.134181	0.245803	0.484699
	H164	H	0.019027	0.403381	-0.020752
	H165	H	0.002901	0.022453	0.149535
	H166	H	-0.154022	0.231393	0.520105
	H167	H	0.227355	0.247744	0.350977
	H168	H	0.013554	0.321598	0.047399
	H169	H	-0.001315	0.098693	0.230773
	H170	H	-0.072069	0.236621	0.452361
	H171	H	0.151188	0.251558	0.269617
	H172	H	0.001141	0.403105	0.255718
	H173	H	0.004706	0.196615	0.036234
	H174	H	-0.153043	0.248680	0.243549
	H175	H	0.053107	0.245670	0.463963
	H176	H	0.004824	0.486050	0.185524
	H177	H	0.007078	0.119929	-0.044810
	H178	H	-0.236129	0.245271	0.313278
	H179	H	0.129754	0.243716	0.545185
	N180	N	0.012658	0.500962	0.038522
	N181	N	0.007380	0.021763	-0.006011
	N182	N	-0.251463	0.237933	0.460149
	N183	N	0.227927	0.243748	0.506675
	O184	O	0.032368	0.540273	0.072717
	O185	O	-0.290783	0.218512	0.425655
	O186	O	0.219397	0.221279	0.569341
	O187	O	0.029359	0.030428	-0.069007
	C188	C	-0.053269	0.246908	0.296524
	C189	C	-0.004820	0.246401	0.348765
	C190	C	0.047743	0.249913	0.305416
	H191	H	-0.005630	0.279230	0.387424
	H192	H	-0.007090	0.210532	0.381510
	C193	C	0.046843	0.203179	0.250161
	C194	C	0.000205	0.202127	0.194736
	H195	H	0.082531	0.204015	0.217109
	H196	H	0.046000	0.167542	0.283341
	C197	C	-0.050699	0.200323	0.241560
	H198	H	-0.083512	0.199355	0.202721
	H199	H	-0.054678	0.164459	0.274193
	C200	C	-0.047975	0.297886	0.249810
	C201	C	0.049553	0.300748	0.258408
	C202	C	0.003061	0.303166	0.203265
	H203	H	0.050412	0.333628	0.297128
	H204	H	0.085462	0.304726	0.225891
	C205	C	0.003717	0.254627	0.151220
	H206	H	-0.080571	0.300038	0.211032
	H207	H	-0.050224	0.330547	0.288457
	H208	H	-0.029051	0.255330	0.112441
	H209	H	0.039639	0.256889	0.118607
	C210	C	0.490614	0.432444	0.958566
	C211	C	0.695439	0.257421	0.568327
	C212	C	0.317778	0.260809	0.541260
	C213	C	0.490957	0.054723	0.931939
	C214	C	0.535030	0.425945	0.915872
	C215	C	0.658300	0.216377	0.562019
	C216	C	0.323959	0.216280	0.583850
	C217	C	0.532262	0.091566	0.938259
	C218	C	0.537488	0.383603	0.867347
	C219	C	0.612549	0.216377	0.604046
	C220	C	0.366281	0.213463	0.632330
	C221	C	0.532699	0.137264	0.896030
	C222	C	0.496836	0.345582	0.860692
	C223	C	0.602452	0.255899	0.655157
	C224	C	0.404579	0.253855	0.639035
	C225	C	0.493354	0.147610	0.844758
	C226	C	0.453538	0.352042	0.906640
	C227	C	0.641006	0.296061	0.661524
	C228	C	0.398449	0.297247	0.593135
	C229	C	0.452942	0.109326	0.838349
	C230	C	0.450312	0.394352	0.955006
	C231	C	0.686732	0.296851	0.619496
	C232	C	0.356164	0.300836	0.544832
	C233	C	0.451721	0.063658	0.880557
	H234	H	0.567878	0.453431	0.920502
	H235	H	0.664895	0.184151	0.525390
	H236	H	0.296235	0.183629	0.579188
	H237	H	0.564353	0.084805	0.975046
	H238	H	0.572399	0.380539	0.834507
	H239	H	0.584032	0.184353	0.597373
	H240	H	0.369099	0.178489	0.665116
	H241	H	0.564917	0.165556	0.902713
	H242	H	0.421472	0.323226	0.904556
	H243	H	0.635924	0.327651	0.700194
	H244	H	0.427490	0.329111	0.595238
	H245	H	0.421476	0.114589	0.799538
	H246	H	0.416577	0.398480	0.989933
	H247	H	0.716033	0.328054	0.625857
	H248	H	0.352274	0.334660	0.509995
	H249	H	0.420307	0.034584	0.874203
	N250	N	0.486359	0.475876	1.011573
	N251	N	0.745627	0.258818	0.528679
	N252	N	0.274304	0.265565	0.488490
	N253	N	0.488845	0.004661	0.971981
	O254	O	0.459683	0.468248	1.070782
	O255	O	0.281984	0.292442	0.429467
	O256	O	0.464534	-0.033648	0.941046
	O257	O	0.783918	0.283342	0.559320
	C258	C	0.451444	0.252015	0.693789
	C259	C	0.449764	0.201468	0.741957
	C260	C	0.496033	0.198592	0.797836
	H261	H	0.413662	0.199057	0.774155
	H262	H	0.450072	0.168253	0.703947
	C263	C	0.546506	0.203169	0.749956
	C264	C	0.551457	0.253616	0.702020
	H265	H	0.580501	0.202248	0.786330
	H266	H	0.547199	0.169131	0.713622
	C267	C	0.503432	0.254774	0.649509
	H268	H	0.506961	0.290074	0.615560
	H269	H	0.502944	0.222466	0.609810
	C270	C	0.452138	0.298266	0.749867
	C271	C	0.495198	0.246676	0.850300
	C272	C	0.498346	0.298655	0.805978
	H273	H	0.459877	0.243412	0.884217
	H274	H	0.527475	0.246950	0.890031
	C275	C	0.548893	0.299953	0.757847
	H276	H	0.454169	0.334999	0.719256
	H277	H	0.415403	0.296506	0.780456
	H278	H	0.551569	0.336039	0.725607
	H279	H	0.582077	0.299427	0.795879
