data_Molecule from CHK

_cell_length_a		39.955317
_cell_length_b		40.422064
_cell_length_c		9.773288
_cell_angle_alpha	94.538514
_cell_angle_beta	81.484627
_cell_angle_gamma	68.150373
_symmetry_space_group_name_H-M	'P 1'
_symmetry_Int_Tables_number		1

loop_
	_symmetry_equiv_pos_as_xyz
	x,y,z

loop_
	_atom_site_label
	_atom_site_type_symbol
	_atom_site_fract_x
	_atom_site_fract_y
	_atom_site_fract_z
	C0	C	0.047013	0.654313	0.354668
	C1	C	0.050455	0.552115	0.500025
	C2	C	0.041133	0.738548	0.688545
	C3	C	-0.050855	0.688057	0.153787
	C4	C	0.149663	0.652265	0.100889
	C5	C	0.022397	0.585578	0.558924
	C6	C	0.035415	0.745674	0.553739
	C7	C	-0.017997	0.659149	0.090320
	C8	C	0.149309	0.636705	0.224381
	C9	C	0.022017	0.617417	0.512079
	C10	C	0.036596	0.718839	0.452284
	C11	C	0.012687	0.648936	0.154306
	C12	C	0.116906	0.636195	0.298691
	C13	C	0.049321	0.617805	0.404799
	C14	C	0.043466	0.683547	0.478731
	C15	C	0.012482	0.666853	0.283511
	C16	C	0.083202	0.650854	0.254859
	C17	C	0.075861	0.584140	0.340358
	C18	C	0.050189	0.676285	0.612289
	C19	C	-0.020815	0.694702	0.348696
	C20	C	0.083713	0.665977	0.130798
	C21	C	0.076464	0.552140	0.386722
	C22	C	0.049150	0.703068	0.714669
	C23	C	-0.051549	0.705011	0.285805
	C24	C	0.116019	0.666601	0.055826
	H25	H	0.000083	0.586878	0.639786
	H26	H	0.031200	0.772174	0.526042
	H27	H	-0.016111	0.643956	-0.008738
	H28	H	0.173961	0.625727	0.267247
	H29	H	-0.000210	0.642791	0.558115
	H30	H	0.032874	0.725116	0.348402
	H31	H	0.037473	0.626113	0.104529
	H32	H	0.117364	0.625256	0.396450
	H33	H	0.096249	0.582782	0.251430
	H34	H	0.057424	0.649065	0.635888
	H35	H	-0.023123	0.708381	0.451526
	H36	H	0.058287	0.678899	0.094678
	H37	H	0.097470	0.526500	0.335335
	H38	H	0.054941	0.696622	0.816428
	H39	H	-0.076924	0.726668	0.339123
	H40	H	0.115344	0.679464	-0.037619
	N41	N	0.051745	0.519258	0.542226
	N42	N	0.042779	0.764961	0.787365
	N43	N	-0.083511	0.699333	0.102197
	N44	N	0.179666	0.658337	0.031028
	C45	C	0.364931	0.742158	-0.234199
	C46	C	0.358988	0.735188	-0.096417
	C47	C	0.336237	0.717283	-0.055603
	C48	C	0.318101	0.705792	-0.150283
	C49	C	0.324404	0.712553	-0.288652
	C50	C	0.347385	0.730170	-0.329797
	C51	C	0.292273	0.688324	-0.104339
	C52	C	0.258563	0.697631	-0.149657
	C53	C	0.233084	0.683471	-0.099545
	C54	C	0.240272	0.658981	-0.003057
	C55	C	0.274419	0.648634	0.038814
	C56	C	0.299788	0.663032	-0.010566
	H57	H	0.206803	0.691789	-0.132771
	H58	H	0.351657	0.735152	-0.437039
	H59	H	0.280762	0.629474	0.112218
	H60	H	0.372464	0.744164	-0.021620
	H61	H	0.251705	0.717332	-0.220809
	H62	H	0.311292	0.703455	-0.364516
	H63	H	0.331646	0.712854	0.052253
	H64	H	0.326020	0.654500	0.022833
	C65	C	0.388861	0.761144	-0.279292
	H66	H	0.392469	0.763908	-0.391046
	C67	C	0.211638	0.647013	0.061278
	H68	H	0.219564	0.628893	0.139056
	C69	C	0.695222	0.763072	-0.225223
	C70	C	0.725793	0.758577	-0.327519
	C71	C	0.761017	0.746938	-0.297464
	C72	C	0.767378	0.739304	-0.163521
	C73	C	0.736606	0.743740	-0.061608
	C74	C	0.701429	0.755282	-0.091605
	C75	C	0.804940	0.726944	-0.129547
	C76	C	0.810300	0.737741	0.003017
	C77	C	0.845013	0.725834	0.037166
	C78	C	0.876195	0.702463	-0.059327
	C79	C	0.871172	0.691978	-0.192562
	C80	C	0.836369	0.703996	-0.226800
	H81	H	0.848377	0.734553	0.140231
	H82	H	0.678327	0.758256	-0.010948
	H83	H	0.894831	0.674062	-0.269258
	H84	H	0.721450	0.764481	-0.431323
	H85	H	0.786966	0.756277	0.079487
	H86	H	0.740534	0.737229	0.041857
	H87	H	0.783940	0.744394	-0.378116
	H88	H	0.833227	0.694805	-0.329525
	C89	C	0.657797	0.775053	-0.256255
	H90	H	0.636019	0.777029	-0.169104
	C91	C	0.912766	0.689457	-0.019750
	H92	H	0.935736	0.671113	-0.100509
	C93	C	0.039131	0.321494	-0.027184
	C94	C	0.046288	0.347781	0.051852
	C95	C	0.047185	0.378317	-0.001737
	C96	C	0.040846	0.384282	-0.137114
	C97	C	0.034371	0.357536	-0.217082
	C98	C	0.033433	0.326877	-0.163335
	C99	C	0.040480	0.418038	-0.189969
	C100	C	0.053933	0.418790	-0.330537
	C101	C	0.053697	0.450591	-0.376929
	C102	C	0.039799	0.483182	-0.285153
	C103	C	0.026104	0.482618	-0.144997
	C104	C	0.026412	0.450876	-0.098800
	H105	H	0.064488	0.450591	-0.485482
	H106	H	0.027866	0.306942	-0.226443
	H107	H	0.015073	0.507431	-0.071892
	H108	H	0.051004	0.344055	0.157042
	H109	H	0.065483	0.393929	-0.403377
	H110	H	0.029018	0.361438	-0.321380
	H111	H	0.053441	0.397698	0.061618
	H112	H	0.014860	0.451608	0.009523
	C113	C	0.036890	0.290007	0.035077
	H114	H	0.031095	0.270509	-0.031756
	C115	C	0.039539	0.517127	-0.331697
	H116	H	0.028492	0.540667	-0.249452
	C117	C	0.046488	-0.019507	0.221986
	C118	C	0.029813	-0.018145	0.104826
	C119	C	0.025385	-0.048138	0.043933
	C120	C	0.037239	-0.081055	0.097256
	C121	C	0.054221	-0.082382	0.214071
	C122	C	0.058669	-0.052319	0.275233
	C123	C	0.031920	-0.112808	0.030532
	C124	C	0.057694	-0.148279	0.021687
	C125	C	0.053339	-0.177404	-0.048052
	C126	C	0.022865	-0.172472	-0.111442
	C127	C	-0.003505	-0.137270	-0.099207
	C128	C	0.000862	-0.108237	-0.029499
	H129	H	0.073965	-0.204464	-0.056625
	H130	H	0.071502	-0.054004	0.366098
	H131	H	-0.027495	-0.132780	-0.146034
	H132	H	0.020347	0.006933	0.061824
	H133	H	0.082102	-0.152941	0.065876
	H134	H	0.063272	-0.107140	0.259185
	H135	H	0.013143	-0.046221	-0.048440
	H136	H	-0.020312	-0.081477	-0.020162
	C137	C	0.049736	0.013002	0.288662
	H138	H	0.062937	0.009922	0.380337
	C139	C	0.019608	-0.202418	-0.197444
	H140	H	-0.003959	-0.194902	-0.250888
	C141	C	0.504572	0.826762	0.488528
	C142	C	0.427863	0.790649	0.746512
	C143	C	0.467573	0.942704	0.449384
	C144	C	0.490322	0.758313	0.147018
	C145	C	0.615491	0.793065	0.593671
	C146	C	0.415778	0.817203	0.660603
	C147	C	0.495495	0.916114	0.349334
	C148	C	0.512603	0.743709	0.242930
	C149	C	0.583711	0.814748	0.691542
	C150	C	0.439974	0.830146	0.588131
	C151	C	0.506917	0.879709	0.363813
	C152	C	0.519123	0.765900	0.342830
	C153	C	0.548953	0.825375	0.656539
	C154	C	0.477197	0.817735	0.598209
	C155	C	0.491153	0.867855	0.477600
	C156	C	0.503829	0.803556	0.352351
	C157	C	0.543967	0.815038	0.523230
	C158	C	0.488726	0.792249	0.688593
	C159	C	0.464490	0.894653	0.580297
	C160	C	0.483243	0.817855	0.251054
	C161	C	0.575966	0.795495	0.423442
	C162	C	0.464631	0.779123	0.761456
	C163	C	0.452761	0.931140	0.566255
	C164	C	0.476683	0.795733	0.149971
	C165	C	0.610807	0.784825	0.457522
	H166	H	0.387327	0.827332	0.648573
	H167	H	0.507747	0.923860	0.257364
	H168	H	0.523846	0.714763	0.241474
	H169	H	0.585968	0.823933	0.795602
	H170	H	0.430159	0.849241	0.516961
	H171	H	0.528525	0.859745	0.285208
	H172	H	0.534786	0.753862	0.420290
	H173	H	0.524873	0.842199	0.733775
	H174	H	0.517296	0.781127	0.698179
	H175	H	0.452826	0.886940	0.673513
	H176	H	0.470443	0.846769	0.255193
	H177	H	0.573635	0.788641	0.316917
	H178	H	0.474625	0.758515	0.826843
	H179	H	0.431907	0.951277	0.646772
	H180	H	0.459351	0.807462	0.076524
	H181	H	0.635064	0.769471	0.378534
	N182	N	0.405411	0.773129	0.802485
	N183	N	0.455608	0.979598	0.437926
	N184	N	0.477738	0.736217	0.066730
	N185	N	0.651162	0.781638	0.622612
	C186	C	0.032551	0.179158	0.512620
	C187	C	0.037838	0.075020	0.307362
	C188	C	0.121573	0.176909	0.736934
	C189	C	-0.077812	0.215806	0.781639
	C190	C	0.039062	0.259597	0.235431
	C191	C	0.067556	0.076802	0.363928
	C192	C	0.087202	0.180770	0.811426
	C193	C	-0.068351	0.238934	0.698531
	C194	C	0.032267	0.229641	0.184933
	C195	C	0.066711	0.109547	0.426307
	C196	C	0.059153	0.180270	0.742398
	C197	C	-0.033366	0.228036	0.615949
	C198	C	0.030585	0.203731	0.269697
	C199	C	0.036696	0.142152	0.432911
	C200	C	0.064346	0.174831	0.596008
	C201	C	-0.005996	0.193887	0.613748
	C202	C	0.034063	0.206997	0.410237
	C203	C	0.007563	0.140158	0.372942
	C204	C	0.099670	0.168452	0.522722
	C205	C	-0.015401	0.171424	0.700742
	C206	C	0.039806	0.237544	0.460776
	C207	C	0.008300	0.107701	0.309784
	C208	C	0.127752	0.169088	0.591058
	C209	C	-0.050165	0.182242	0.784528
	C210	C	0.042283	0.263027	0.376383
	H211	H	0.091589	0.052391	0.359563
	H212	H	0.082628	0.184375	0.924619
	H213	H	-0.088752	0.265599	0.697884
	H214	H	0.028316	0.226096	0.078507
	H215	H	0.089728	0.109435	0.472509
	H216	H	0.032651	0.184943	0.804500
	H217	H	-0.027714	0.246384	0.550293
	H218	H	0.026665	0.180476	0.224355
	H219	H	-0.016502	0.164625	0.378173
	H220	H	0.104782	0.163906	0.409361
	H221	H	0.004951	0.144671	0.700599
	H222	H	0.042527	0.241283	0.568964
	H223	H	-0.014709	0.107135	0.264531
	H224	H	0.154524	0.164815	0.531440
	H225	H	-0.056653	0.164206	0.850147
	H226	H	0.046921	0.286196	0.419083
	N227	N	0.036668	0.043224	0.244067
	N228	N	0.149200	0.180417	0.804109
	N229	N	-0.113136	0.225682	0.862880
	N230	N	0.041015	0.287068	0.160900
	C231	C	0.393173	0.555780	-0.192193
	C232	C	0.401440	0.558890	-0.058415
	C233	C	0.408145	0.588336	-0.006486
	C234	C	0.407060	0.616131	-0.085912
	C235	C	0.397313	0.613655	-0.217684
	C236	C	0.390534	0.584126	-0.269802
	C237	C	0.417436	0.645804	-0.032124
	C238	C	0.437983	0.660131	-0.120596
	C239	C	0.450361	0.685581	-0.067715
	C240	C	0.442490	0.698038	0.076000
	C241	C	0.420960	0.684679	0.164159
	C242	C	0.408730	0.659218	0.111389
	H243	H	0.466605	0.695966	-0.137146
	H244	H	0.383689	0.582519	-0.372659
	H245	H	0.414245	0.694195	0.275489
	H246	H	0.403592	0.537243	0.003054
	H247	H	0.445243	0.650371	-0.231747
	H248	H	0.394988	0.635315	-0.279135
	H249	H	0.416059	0.588960	0.094727
	H250	H	0.391986	0.649606	0.181974
	C251	C	0.390533	0.522208	-0.251375
	H252	H	0.386528	0.520675	-0.359844
	C253	C	0.457003	0.723139	0.136899
	H254	H	0.449228	0.730196	0.251564
	C255	C	0.417827	1.203940	1.137136
	C256	C	0.447035	1.191740	1.208984
	C257	C	0.454616	1.160242	1.268599
	C258	C	0.433616	1.139233	1.257935
	C259	C	0.403337	1.152501	1.191333
	C260	C	0.395682	1.184044	1.131895
	C261	C	0.444489	1.103148	1.305437
	C262	C	0.418531	1.089292	1.358480
	C263	C	0.429336	1.054348	1.390923
	C264	C	0.466604	1.031593	1.371719
	C265	C	0.492632	1.045671	1.323112
	C266	C	0.481817	1.080583	1.290981
	H267	H	0.408910	1.043961	1.430008
	H268	H	0.373059	1.192946	1.076324
	H269	H	0.521599	1.028702	1.308206
	H270	H	0.464182	1.207040	1.214970
	H271	H	0.389534	1.106219	1.375031
	H272	H	0.386726	1.136876	1.180049
	H273	H	0.477306	1.151624	1.323830
	H274	H	0.502652	1.090131	1.248841
	C275	C	0.412682	1.234515	1.058056
	H276	H	0.389466	1.241708	1.002910
	C277	C	0.478397	0.993704	1.396013
	H278	H	0.508223	0.978053	1.375254
	C279	C	0.299857	0.261562	0.277746
	C280	C	0.274173	0.286189	0.213548
	C281	C	0.248802	0.276828	0.154063
	C282	C	0.248086	0.242324	0.155006
	C283	C	0.274090	0.217600	0.218294
	C284	C	0.299214	0.227087	0.279265
	C285	C	0.220604	0.232719	0.091802
	C286	C	0.230411	0.199502	0.007168
	C287	C	0.204796	0.191330	-0.055609
	C288	C	0.168111	0.215779	-0.034784
	C289	C	0.158023	0.248669	0.052111
	C290	C	0.183720	0.256975	0.113421
	H291	H	0.212912	0.165861	-0.122630
	H292	H	0.318539	0.207783	0.329824
	H293	H	0.129758	0.267888	0.070356
	H294	H	0.274299	0.312933	0.211591
	H295	H	0.258717	0.180409	-0.012396
	H296	H	0.273696	0.191029	0.222554
	H297	H	0.229528	0.296249	0.103684
	H298	H	0.175207	0.282429	0.180918
	C299	C	0.326109	0.271792	0.344394
	H300	H	0.343959	0.251062	0.396884
	C301	C	0.141039	0.208406	-0.105841
	H302	H	0.113023	0.229319	-0.080245
	C303	C	0.637025	0.288338	0.253132
	C304	C	0.643292	0.303601	0.132916
	C305	C	0.678781	0.295977	0.061865
	C306	C	0.709797	0.272520	0.106807
	C307	C	0.703258	0.257135	0.227009
	C308	C	0.667801	0.264915	0.298669
	C309	C	0.747916	0.263991	0.030047
	C310	C	0.777804	0.255859	0.099671
	C311	C	0.813429	0.247208	0.027723
	C312	C	0.820942	0.246445	-0.117511
	C313	C	0.791219	0.255026	-0.187472
	C314	C	0.755644	0.263491	-0.115499
	H315	H	0.836070	0.240923	0.083450
	H316	H	0.663638	0.252557	0.390689
	H317	H	0.796339	0.254576	-0.299785
	H318	H	0.619778	0.321885	0.096759
	H319	H	0.772994	0.256939	0.212257
	H320	H	0.726311	0.238156	0.263017
	H321	H	0.682483	0.309101	-0.028280
	H322	H	0.733550	0.268950	-0.173591
	C323	C	0.599497	0.296624	0.329805
	H324	H	0.597465	0.285385	0.428081
	C325	C	0.858697	0.236582	-0.195051
	H326	H	0.861597	0.237938	-0.307900
	C327	C	0.426640	0.346216	0.626167
	C328	C	0.351638	0.313122	0.410080
	C329	C	0.535600	0.323673	0.364990
	C330	C	0.432838	0.275367	0.953097
	C331	C	0.398227	0.461663	0.769825
	C332	C	0.385783	0.288526	0.427981
	C333	C	0.526700	0.337827	0.507463
	C334	C	0.399622	0.302759	0.941966
	C335	C	0.402362	0.448325	0.628529
	C336	C	0.408945	0.299950	0.494530
	C337	C	0.492158	0.344827	0.586729
	C338	C	0.398489	0.325499	0.840806
	C339	C	0.409739	0.412079	0.586410
	C340	C	0.400063	0.336344	0.543479
	C341	C	0.465142	0.337079	0.530210
	C342	C	0.430204	0.322821	0.748731
	C343	C	0.412422	0.387466	0.681834
	C344	C	0.366388	0.360938	0.522224
	C345	C	0.473998	0.323556	0.387157
	C346	C	0.463452	0.296455	0.765329
	C347	C	0.406378	0.401342	0.823304
	C348	C	0.343044	0.349680	0.455312
	C349	C	0.508452	0.316756	0.306612
	C350	C	0.464844	0.273699	0.866335
	C351	C	0.399151	0.437492	0.866187
	H352	H	0.394747	0.260135	0.390071
	H353	H	0.546603	0.344512	0.555334
	H354	H	0.374477	0.305986	1.011580
	H355	H	0.401773	0.465475	0.548664
	H356	H	0.434691	0.280145	0.510123
	H357	H	0.485665	0.356740	0.695600
	H358	H	0.372297	0.345515	0.830293
	H359	H	0.414851	0.402039	0.475936
	H360	H	0.357826	0.389241	0.560616
	H361	H	0.453656	0.318624	0.336357
	H362	H	0.488753	0.292554	0.695969
	H363	H	0.408659	0.383550	0.901590
	H364	H	0.317108	0.369282	0.440259
	H365	H	0.514605	0.306049	0.196429
	H366	H	0.490891	0.253216	0.875679
	H367	H	0.395398	0.447245	0.976252
	N368	N	0.327039	0.303075	0.345190
	N369	N	0.570756	0.315246	0.284729
	N370	N	0.435680	0.249732	1.044603
	N371	N	0.394415	0.496472	0.820341
