data_Molecule from CHK

_cell_length_a		34.936843
_cell_length_b		35.027725
_cell_length_c		7.659327
_cell_angle_alpha	88.433435
_cell_angle_beta	90.887315
_cell_angle_gamma	94.276096
_symmetry_space_group_name_H-M	'P 1'
_symmetry_Int_Tables_number		1

loop_
	_symmetry_equiv_pos_as_xyz
	x,y,z

loop_
	_atom_site_label
	_atom_site_type_symbol
	_atom_site_fract_x
	_atom_site_fract_y
	_atom_site_fract_z
	C0	C	0.004340	0.759788	1.003200
	C1	C	-0.006091	0.658732	1.367729
	C2	C	0.007801	0.864699	1.315760
	C3	C	-0.097015	0.755431	0.643536
	C4	C	0.109343	0.758729	0.685678
	C5	C	0.006000	0.695321	1.426516
	C6	C	-0.026000	0.851041	1.230214
	C7	C	-0.060145	0.767829	0.585216
	C8	C	0.093826	0.725347	0.770799
	C9	C	0.009716	0.726921	1.311568
	C10	C	-0.027069	0.818314	1.129821
	C11	C	-0.028465	0.769508	0.698684
	C12	C	0.061091	0.725663	0.872720
	C13	C	0.000671	0.724184	1.133314
	C14	C	0.005430	0.797770	1.108717
	C15	C	-0.031307	0.757948	0.874760
	C16	C	0.042358	0.759177	0.895963
	C17	C	-0.012713	0.687731	1.076533
	C18	C	0.039458	0.812503	1.190269
	C19	C	-0.068086	0.744749	0.931559
	C20	C	0.059036	0.792727	0.815094
	C21	C	-0.016014	0.655863	1.190216
	C22	C	0.040810	0.845257	1.290439
	C23	C	-0.099966	0.743279	0.819165
	C24	C	0.091807	0.792695	0.713330
	H25	H	0.011982	0.699483	1.564133
	H26	H	-0.051590	0.866348	1.244476
	H27	H	-0.055538	0.775703	0.449156
	H28	H	0.107690	0.698992	0.755002
	H29	H	0.019383	0.754285	1.364352
	H30	H	-0.053858	0.808846	1.066733
	H31	H	-0.000903	0.779514	0.646265
	H32	H	0.050260	0.699114	0.935376
	H33	H	-0.020759	0.684269	0.940268
	H34	H	0.065345	0.797747	1.175635
	H35	H	-0.071815	0.735288	1.066596
	H36	H	0.045855	0.819405	0.831576
	H37	H	-0.026643	0.628124	1.142407
	H38	H	0.067580	0.856081	1.350814
	H39	H	-0.127848	0.732183	0.866330
	H40	H	0.104140	0.819117	0.653499
	N41	N	-0.010953	0.626445	1.479978
	N42	N	0.008803	0.897858	1.415564
	N43	N	-0.129604	0.751982	0.534190
	N44	N	0.142516	0.758338	0.584485
	C45	C	0.331892	0.746934	0.726363
	C46	C	0.296547	0.726673	0.692071
	C47	C	0.265971	0.727658	0.805587
	C48	C	0.269168	0.749008	0.958759
	C49	C	0.304909	0.768742	0.993765
	C50	C	0.335527	0.767769	0.880336
	C51	C	0.235944	0.750827	1.077591
	C52	C	0.241025	0.754256	1.259177
	C53	C	0.209902	0.755860	1.369282
	C54	C	0.172154	0.754106	1.303176
	C55	C	0.166890	0.750933	1.122129
	C56	C	0.198013	0.749378	1.012202
	H57	H	0.214534	0.758526	1.508792
	H58	H	0.362672	0.783413	0.910017
	H59	H	0.138034	0.749934	1.067747
	H60	H	0.293467	0.709856	0.575219
	H61	H	0.269749	0.754910	1.314998
	H62	H	0.308459	0.785684	1.109921
	H63	H	0.239350	0.710970	0.777022
	H64	H	0.192887	0.747873	0.872569
	C65	C	0.363923	0.747037	0.603397
	H66	H	0.390943	0.762765	0.642992
	C67	C	0.138935	0.755015	1.418819
	H68	H	0.110439	0.752602	1.355396
	C69	C	0.671531	0.733930	0.689720
	C70	C	0.694572	0.768476	0.683889
	C71	C	0.725656	0.774810	0.797770
	C72	C	0.735319	0.746919	0.923160
	C73	C	0.712125	0.712290	0.927932
	C74	C	0.680988	0.705925	0.814206
	C75	C	0.768861	0.753598	1.044505
	C76	C	0.769029	0.737229	1.214331
	C77	C	0.800669	0.742772	1.325811
	C78	C	0.833581	0.765307	1.273601
	C79	C	0.833344	0.782362	1.105715
	C80	C	0.801859	0.776447	0.993706
	H81	H	0.800189	0.729723	1.455912
	H82	H	0.663700	0.678943	0.820997
	H83	H	0.858442	0.799859	1.061951
	H84	H	0.687585	0.790510	0.588874
	H85	H	0.743731	0.720483	1.261006
	H86	H	0.719154	0.689755	1.020017
	H87	H	0.742214	0.802212	0.791808
	H88	H	0.803278	0.788899	0.862644
	C89	C	0.638386	0.727438	0.569739
	H90	H	0.621614	0.699765	0.584517
	C91	C	0.867569	0.770653	1.389600
	H92	H	0.890277	0.791509	1.341994
	C93	C	-0.010042	0.417894	1.281257
	C94	C	-0.000405	0.453773	1.353489
	C95	C	0.001290	0.487126	1.249906
	C96	C	-0.006592	0.486213	1.069256
	C97	C	-0.017289	0.450241	0.998783
	C98	C	-0.019069	0.416944	1.102279
	C99	C	-0.003058	0.521542	0.955614
	C100	C	-0.027223	0.526183	0.809144
	C101	C	-0.022954	0.558522	0.699678
	C102	C	0.005761	0.587783	0.731082
	C103	C	0.029680	0.583585	0.878166
	C104	C	0.025268	0.551300	0.987970
	H105	H	-0.041933	0.561501	0.587493
	H106	H	-0.027532	0.389687	1.044280
	H107	H	0.051962	0.605887	0.905803
	H108	H	0.006190	0.455105	1.492090
	H109	H	-0.050089	0.504410	0.782453
	H110	H	-0.023245	0.448181	0.859902
	H111	H	0.008386	0.514434	1.310222
	H112	H	0.044713	0.548537	1.098451
	C113	C	-0.010343	0.382083	1.387382
	H114	H	-0.014693	0.355654	1.313496
	C115	C	0.011068	0.621554	0.612236
	H116	H	0.035342	0.642077	0.643702
	C117	C	0.002935	0.084946	1.277939
	C118	C	-0.018147	0.049932	1.311518
	C119	C	-0.017902	0.019988	1.196216
	C120	C	0.003537	0.023463	1.041879
	C121	C	0.023928	0.058956	1.007053
	C122	C	0.023664	0.088987	1.122280
	C123	C	0.004668	-0.009365	0.922377
	C124	C	0.008358	-0.003952	0.740623
	C125	C	0.009055	-0.034854	0.630476
	C126	C	0.006165	-0.072677	0.696806
	C127	C	0.002987	-0.078251	0.878115
	C128	C	0.002325	-0.047376	0.987982
	H129	H	0.011857	-0.030001	0.490768
	H130	H	0.039815	0.115946	1.092775
	H131	H	0.001214	-0.107174	0.932701
	H132	H	-0.035058	0.046595	1.429231
	H133	H	0.009875	0.024872	0.684804
	H134	H	0.040792	0.062761	0.889521
	H135	H	-0.035246	-0.006342	1.224456
	H136	H	0.000756	-0.052787	1.127753
	C137	C	0.003804	0.116096	1.403824
	H138	H	0.019249	0.143349	1.363853
	C139	C	0.005799	-0.105735	0.581731
	H140	H	0.002608	-0.134207	0.646225
	C141	C	0.493582	0.737558	1.001590
	C142	C	0.392135	0.732149	1.344176
	C143	C	0.498969	0.840898	0.650342
	C144	C	0.489596	0.637072	0.661304
	C145	C	0.597255	0.746811	1.345328
	C146	C	0.405004	0.766509	1.258578
	C147	C	0.488185	0.804382	0.587073
	C148	C	0.524079	0.650663	0.741932
	C149	C	0.561243	0.733651	1.410830
	C150	C	0.436486	0.768247	1.147963
	C151	C	0.485910	0.772053	0.697908
	C152	C	0.525398	0.681787	0.852438
	C153	C	0.528839	0.730027	1.302205
	C154	C	0.456612	0.735977	1.116925
	C155	C	0.495264	0.774003	0.876187
	C156	C	0.492528	0.700646	0.888994
	C157	C	0.530245	0.740150	1.123967
	C158	C	0.442277	0.701358	1.196766
	C159	C	0.507178	0.810461	0.937515
	C160	C	0.457899	0.685724	0.813351
	C161	C	0.566298	0.753834	1.059945
	C162	C	0.410671	0.699333	1.306543
	C163	C	0.508988	0.843042	0.828006
	C164	C	0.456311	0.654494	0.703781
	C165	C	0.598950	0.757190	1.167413
	H166	H	0.390063	0.791950	1.280338
	H167	H	0.482169	0.800825	0.449100
	H168	H	0.549966	0.636655	0.716252
	H169	H	0.558366	0.726905	1.549114
	H170	H	0.445273	0.795356	1.084725
	H171	H	0.477177	0.744768	0.641713
	H172	H	0.552623	0.691374	0.911234
	H173	H	0.501921	0.719659	1.360119
	H174	H	0.456501	0.675518	1.173968
	H175	H	0.515508	0.813263	1.073798
	H176	H	0.431695	0.699192	0.839180
	H177	H	0.568728	0.762425	0.923241
	H178	H	0.400158	0.672166	1.365637
	H179	H	0.518664	0.870753	0.879098
	H180	H	0.429117	0.643452	0.648250
	H181	H	0.626294	0.768341	1.114466
	N182	N	0.360635	0.730283	1.456771
	N183	N	0.502717	0.873860	0.541853
	N184	N	0.487862	0.606034	0.548407
	N185	N	0.629714	0.752519	1.454323
	C186	C	-0.006624	0.243949	1.003035
	C187	C	-0.010805	0.142038	0.669115
	C188	C	0.095981	0.256366	1.352122
	C189	C	-0.110130	0.237064	1.333207
	C190	C	-0.005109	0.347726	0.653979
	C191	C	0.024119	0.157496	0.739065
	C192	C	0.059581	0.244994	1.418190
	C193	C	-0.096799	0.271709	1.251073
	C194	C	-0.025025	0.313112	0.607619
	C195	C	0.025541	0.188950	0.847690
	C196	C	0.027453	0.240569	1.308274
	C197	C	-0.064541	0.273872	1.144909
	C198	C	-0.024808	0.280466	0.716141
	C199	C	-0.007445	0.207185	0.888803
	C200	C	0.029804	0.246828	1.126928
	C201	C	-0.043728	0.241890	1.117531
	C202	C	-0.006020	0.280625	0.879104
	C203	C	-0.042287	0.191075	0.819609
	C204	C	0.066483	0.257865	1.061931
	C205	C	-0.057306	0.207375	1.200409
	C206	C	0.012633	0.315719	0.927496
	C207	C	-0.044027	0.159476	0.712190
	C208	C	0.098832	0.262143	1.170873
	C209	C	-0.089582	0.204961	1.306075
	C210	C	0.013375	0.348227	0.817735
	H211	H	0.050206	0.144249	0.708991
	H212	H	0.056151	0.240855	1.557973
	H213	H	-0.112303	0.296929	1.269869
	H214	H	-0.040875	0.311146	0.485339
	H215	H	0.053088	0.199144	0.900928
	H216	H	0.000061	0.232721	1.368007
	H217	H	-0.055345	0.301041	1.082793
	H218	H	-0.039829	0.254406	0.671338
	H219	H	-0.068774	0.203636	0.849524
	H220	H	0.069618	0.263963	0.923105
	H221	H	-0.042016	0.181979	1.182665
	H222	H	0.026863	0.317812	1.053915
	H223	H	-0.071391	0.147834	0.660590
	H224	H	0.126750	0.270785	1.116625
	H225	H	-0.099353	0.177923	1.368662
	H226	H	0.028817	0.374672	0.857398
	N227	N	-0.012497	0.111736	0.552334
	N228	N	0.128560	0.260616	1.461245
	N229	N	-0.141176	0.234811	1.448376
	N230	N	-0.005277	0.381761	0.552897
	C231	C	0.504576	0.420875	0.691928
	C232	C	0.508882	0.458827	0.627697
	C233	C	0.508653	0.489530	0.739180
	C234	C	0.504220	0.483802	0.920429
	C235	C	0.500495	0.445651	0.983994
	C236	C	0.500648	0.414954	0.872725
	C237	C	0.503802	0.516494	1.041175
	C238	C	0.482007	0.513478	1.194535
	C239	C	0.482225	0.543445	1.310005
	C240	C	0.504239	0.577981	1.277765
	C241	C	0.525341	0.581572	1.123081
	C242	C	0.525141	0.551533	1.007760
	H243	H	0.465009	0.540499	1.426875
	H244	H	0.497882	0.385906	0.925715
	H245	H	0.542161	0.608191	1.094389
	H246	H	0.512406	0.463955	0.488486
	H247	H	0.464009	0.487520	1.221826
	H248	H	0.498313	0.439989	1.123395
	H249	H	0.511192	0.518464	0.684641
	H250	H	0.542364	0.554983	0.891214
	C251	C	0.504222	0.388137	0.574917
	H252	H	0.500135	0.359472	0.636943
	C253	C	0.505086	0.609470	1.401806
	H254	H	0.521302	0.636313	1.361867
	C255	C	0.502208	1.082637	-0.258759
	C256	C	0.491549	1.046783	-0.329179
	C257	C	0.489354	1.013616	-0.224372
	C258	C	0.497596	1.014684	-0.044046
	C259	C	0.508980	1.050652	0.024894
	C260	C	0.511324	1.083765	-0.079915
	C261	C	0.493817	0.979474	0.070384
	C262	C	0.517963	0.974814	0.216907
	C263	C	0.513805	0.942381	0.325838
	C264	C	0.485166	0.913067	0.294093
	C265	C	0.461243	0.917293	0.147065
	C266	C	0.465510	0.949697	0.037939
	H267	H	0.532879	0.939337	0.437649
	H268	H	0.520418	1.110995	-0.023116
	H269	H	0.439092	0.894902	0.118915
	H270	H	0.484744	1.045304	-0.467555
	H271	H	0.540831	0.996571	0.243803
	H272	H	0.515143	1.052886	0.163543
	H273	H	0.481673	0.986315	-0.283712
	H274	H	0.446048	0.952463	-0.072453
	C275	C	0.503111	1.118237	-0.366652
	H276	H	0.508448	1.144835	-0.294775
	C277	C	0.480557	0.878775	0.410152
	H278	H	0.456807	0.857809	0.376712
	C279	C	0.333191	0.260527	1.274679
	C280	C	0.300511	0.236801	1.319529
	C281	C	0.268812	0.232977	1.207522
	C282	C	0.268359	0.252327	1.044196
	C283	C	0.301203	0.276180	1.000374
	C284	C	0.332775	0.280343	1.113057
	C285	C	0.234702	0.247545	0.922235
	C286	C	0.224596	0.277484	0.808584
	C287	C	0.193373	0.272969	0.694227
	C288	C	0.170651	0.238277	0.687742
	C289	C	0.180403	0.208316	0.801255
	C290	C	0.211708	0.212851	0.915331
	H291	H	0.186065	0.296535	0.608250
	H292	H	0.357743	0.298715	1.074862
	H293	H	0.163291	0.181229	0.798706
	H294	H	0.300230	0.221502	1.444617
	H295	H	0.240937	0.304984	0.812384
	H296	H	0.302386	0.290880	0.873989
	H297	H	0.243686	0.215238	1.248930
	H298	H	0.219037	0.188840	0.998219
	C299	C	0.367212	0.263814	1.391325
	H300	H	0.390159	0.285276	1.351627
	C301	C	0.137262	0.233798	0.567892
	H302	H	0.120299	0.206100	0.574339
	C303	C	0.672198	0.249897	1.311192
	C304	C	0.710190	0.254382	1.373611
	C305	C	0.741037	0.254321	1.260750
	C306	C	0.735400	0.249841	1.080007
	C307	C	0.697211	0.245720	1.018333
	C308	C	0.666382	0.245764	1.130926
	C309	C	0.768218	0.249904	0.957595
	C310	C	0.765743	0.227762	0.806762
	C311	C	0.795812	0.228503	0.689580
	C312	C	0.829865	0.251471	0.717381
	C313	C	0.832906	0.272983	0.869507
	C314	C	0.802793	0.272207	0.986675
	H315	H	0.793300	0.211015	0.574706
	H316	H	0.637306	0.242744	1.079304
	H317	H	0.859144	0.290577	0.894788
	H318	H	0.715235	0.257983	1.512370
	H319	H	0.740139	0.209113	0.782946
	H320	H	0.691633	0.243352	0.879339
	H321	H	0.770028	0.257085	1.313690
	H322	H	0.805746	0.289750	1.101113
	C323	C	0.639226	0.249899	1.428851
	H324	H	0.610637	0.246334	1.366980
	C325	C	0.861480	0.252864	0.591669
	H326	H	0.887585	0.270593	0.626861
	C327	C	0.503154	0.253398	1.001401
	C328	C	0.497731	0.151797	1.364486
	C329	C	0.507343	0.359846	1.305789
	C330	C	0.402519	0.244800	0.638319
	C331	C	0.610130	0.253995	0.697053
	C332	C	0.519077	0.185989	1.405701
	C333	C	0.472822	0.344491	1.232134
	C334	C	0.439834	0.253773	0.576914
	C335	C	0.594244	0.220279	0.778387
	C336	C	0.519837	0.218052	1.293188
	C337	C	0.471492	0.311407	1.134043
	C338	C	0.471379	0.256607	0.691023
	C339	C	0.560745	0.220086	0.875540
	C340	C	0.500650	0.217662	1.131172
	C341	C	0.504125	0.291356	1.107842
	C342	C	0.467655	0.250913	0.872046
	C343	C	0.541154	0.253231	0.893961
	C344	C	0.480459	0.182952	1.088196
	C345	C	0.538577	0.307190	1.181983
	C346	C	0.430252	0.241567	0.932192
	C347	C	0.557021	0.286721	0.809809
	C348	C	0.478706	0.151089	1.201999
	C349	C	0.540251	0.340355	1.279469
	C350	C	0.398535	0.238855	0.819078
	C351	C	0.590543	0.287182	0.712989
	H352	H	0.535515	0.187958	1.526461
	H353	H	0.447035	0.359238	1.250764
	H354	H	0.444721	0.257375	0.437920
	H355	H	0.608799	0.194209	0.766079
	H356	H	0.536122	0.243763	1.333710
	H357	H	0.444299	0.301596	1.076123
	H358	H	0.499419	0.262936	0.635148
	H359	H	0.549720	0.193535	0.938009
	H360	H	0.465998	0.180461	0.962468
	H361	H	0.564833	0.293331	1.162499
	H362	H	0.425978	0.235822	1.070613
	H363	H	0.542594	0.312876	0.820096
	H364	H	0.462289	0.124892	1.165978
	H365	H	0.567323	0.351776	1.335009
	H366	H	0.370041	0.231301	0.869427
	H367	H	0.602152	0.313517	0.649732
	N368	N	0.497153	0.118154	1.468452
	N369	N	0.508299	0.392370	1.409538
	N370	N	0.369858	0.242760	0.529220
	N371	N	0.643060	0.253936	0.593972
