data_Molecule from CHK

_cell_length_a		35.076234
_cell_length_b		35.118077
_cell_length_c		7.632563
_cell_angle_alpha	88.803793
_cell_angle_beta	90.809325
_cell_angle_gamma	94.893404
_symmetry_space_group_name_H-M	'P 1'
_symmetry_Int_Tables_number		1

loop_
	_symmetry_equiv_pos_as_xyz
	x,y,z

loop_
	_atom_site_label
	_atom_site_type_symbol
	_atom_site_fract_x
	_atom_site_fract_y
	_atom_site_fract_z
	C0	C	0.003427	0.755741	1.003829
	C1	C	-0.006368	0.655765	1.372055
	C2	C	0.005145	0.861249	1.313745
	C3	C	-0.098290	0.753155	0.647548
	C4	C	0.108482	0.757862	0.684193
	C5	C	0.001417	0.693081	1.432756
	C6	C	-0.028141	0.846856	1.225599
	C7	C	-0.063437	0.773441	0.603052
	C8	C	0.093252	0.724020	0.766192
	C9	C	0.004845	0.724418	1.316960
	C10	C	-0.028690	0.813762	1.127098
	C11	C	-0.031426	0.773415	0.713788
	C12	C	0.060572	0.723321	0.868816
	C13	C	0.000038	0.720515	1.135334
	C14	C	0.003939	0.793748	1.109701
	C15	C	-0.032140	0.753539	0.874961
	C16	C	0.041442	0.756161	0.895691
	C17	C	-0.009507	0.683210	1.076655
	C18	C	0.037389	0.808987	1.194878
	C19	C	-0.067136	0.733453	0.918908
	C20	C	0.058071	0.790221	0.818972
	C21	C	-0.012631	0.651674	1.191363
	C22	C	0.038174	0.842041	1.293569
	C23	C	-0.098999	0.732579	0.807003
	C24	C	0.090797	0.791239	0.716575
	H25	H	0.004213	0.697872	1.572301
	H26	H	-0.053785	0.861818	1.236613
	H27	H	-0.061054	0.790144	0.482363
	H28	H	0.107347	0.698116	0.747657
	H29	H	0.010727	0.752429	1.372004
	H30	H	-0.055126	0.803392	1.062793
	H31	H	-0.005387	0.789407	0.672055
	H32	H	0.050393	0.696439	0.929772
	H33	H	-0.014975	0.678838	0.938038
	H34	H	0.063206	0.794368	1.184154
	H35	H	-0.069917	0.718391	1.043961
	H36	H	0.045165	0.816669	0.840112
	H37	H	-0.020291	0.623252	1.142025
	H38	H	0.064530	0.853297	1.356647
	H39	H	-0.125318	0.715950	0.843115
	H40	H	0.103013	0.818057	0.660113
	N41	N	-0.010692	0.623702	1.485025
	N42	N	0.005687	0.894735	1.411959
	N43	N	-0.131368	0.751703	0.541612
	N44	N	0.141624	0.758474	0.582485
	C45	C	0.331110	0.750233	0.722077
	C46	C	0.295917	0.729626	0.686679
	C47	C	0.265336	0.730234	0.800290
	C48	C	0.268356	0.751550	0.954666
	C49	C	0.303932	0.771674	0.990658
	C50	C	0.334569	0.771057	0.877193
	C51	C	0.235139	0.752851	1.073811
	C52	C	0.240085	0.756532	1.256066
	C53	C	0.208969	0.757516	1.366525
	C54	C	0.171355	0.754849	1.300145
	C55	C	0.166221	0.751476	1.118425
	C56	C	0.197337	0.750559	1.008147
	H57	H	0.213502	0.760377	1.506550
	H58	H	0.361595	0.786959	0.907812
	H59	H	0.137464	0.749802	1.063805
	H60	H	0.292969	0.712811	0.568942
	H61	H	0.268703	0.757860	1.312210
	H62	H	0.307362	0.788620	1.107690
	H63	H	0.238859	0.713246	0.770841
	H64	H	0.192283	0.748872	0.868022
	C65	C	0.363185	0.750579	0.599271
	H66	H	0.390151	0.766389	0.640087
	C67	C	0.138149	0.754936	1.416229
	H68	H	0.109766	0.751647	1.352664
	C69	C	0.667266	0.736062	0.707176
	C70	C	0.696328	0.765292	0.676122
	C71	C	0.728239	0.770051	0.786323
	C72	C	0.732631	0.745904	0.933319
	C73	C	0.703215	0.716835	0.964402
	C74	C	0.671346	0.711963	0.854002
	C75	C	0.767279	0.750315	1.049253
	C76	C	0.765507	0.741691	1.230038
	C77	C	0.798176	0.744483	1.336271
	C78	C	0.834224	0.756079	1.266810
	C79	C	0.835991	0.765813	1.087788
	C80	C	0.803384	0.762863	0.981542
	H81	H	0.796157	0.737363	1.474950
	H82	H	0.649226	0.689239	0.881245
	H83	H	0.863342	0.775787	1.031877
	H84	H	0.693482	0.784382	0.564004
	H85	H	0.738033	0.733218	1.288622
	H86	H	0.705866	0.697281	1.074763
	H87	H	0.749777	0.793385	0.760047
	H88	H	0.806161	0.769455	0.842679
	C89	C	0.633563	0.730706	0.589710
	H90	H	0.613054	0.706242	0.621838
	C91	C	0.869335	0.757914	1.376235
	H92	H	0.896142	0.764179	1.304742
	C93	C	-0.006531	0.416773	1.284835
	C94	C	0.003107	0.452692	1.357968
	C95	C	0.004642	0.485948	1.254816
	C96	C	-0.003444	0.484879	1.073785
	C97	C	-0.014021	0.448842	1.002358
	C98	C	-0.015628	0.415651	1.105389
	C99	C	-0.000424	0.520117	0.960533
	C100	C	-0.025016	0.524186	0.815428
	C101	C	-0.021373	0.556428	0.706085
	C102	C	0.007092	0.586188	0.736266
	C103	C	0.031464	0.582550	0.881926
	C104	C	0.027678	0.550339	0.991685
	H105	H	-0.040673	0.558925	0.594922
	H106	H	-0.024072	0.388350	1.046704
	H107	H	0.053615	0.605208	0.908370
	H108	H	0.009785	0.454135	1.496944
	H109	H	-0.047718	0.502027	0.789749
	H110	H	-0.020068	0.446660	0.863079
	H111	H	0.011724	0.513294	1.315765
	H112	H	0.047428	0.547992	1.101092
	C113	C	-0.006934	0.381079	1.390449
	H114	H	-0.011271	0.354652	1.315689
	C115	C	0.011589	0.619813	0.616990
	H116	H	0.035380	0.641163	0.647143
	C117	C	0.000977	0.083608	1.273697
	C118	C	-0.020265	0.048659	1.308177
	C119	C	-0.020339	0.018540	1.192817
	C120	C	0.000923	0.021773	1.037509
	C121	C	0.021430	0.057213	1.001636
	C122	C	0.021490	0.087413	1.116945
	C123	C	0.001837	-0.011260	0.918226
	C124	C	0.005368	-0.006277	0.735682
	C125	C	0.006010	-0.037365	0.625812
	C126	C	0.003260	-0.074950	0.693295
	C127	C	0.000166	-0.080093	0.875391
	C128	C	-0.000479	-0.049036	0.984938
	H129	H	0.008701	-0.032848	0.485496
	H130	H	0.037744	0.114319	1.086680
	H131	H	-0.001583	-0.108820	0.930939
	H132	H	-0.037043	0.045512	1.426652
	H133	H	0.006836	0.022357	0.679098
	H134	H	0.038138	0.060841	0.883257
	H135	H	-0.037794	-0.007744	1.221734
	H136	H	-0.002008	-0.054121	1.125292
	C137	C	0.002282	0.114912	1.399905
	H138	H	0.017908	0.142064	1.359403
	C139	C	0.003082	-0.108253	0.578966
	H140	H	0.000486	-0.136430	0.645216
	C141	C	0.493353	0.740831	0.999650
	C142	C	0.391575	0.735711	1.339521
	C143	C	0.500257	0.844037	0.650628
	C144	C	0.488691	0.640006	0.658184
	C145	C	0.596107	0.748278	1.348812
	C146	C	0.405008	0.769984	1.255030
	C147	C	0.488787	0.807649	0.586268
	C148	C	0.522937	0.653311	0.742094
	C149	C	0.559628	0.736463	1.413106
	C150	C	0.436603	0.771637	1.145184
	C151	C	0.486106	0.775371	0.696446
	C152	C	0.524443	0.684564	0.852752
	C153	C	0.527528	0.733512	1.302760
	C154	C	0.456262	0.739358	1.113831
	C155	C	0.495744	0.777212	0.875025
	C156	C	0.492006	0.703891	0.886078
	C157	C	0.529629	0.743210	1.123955
	C158	C	0.441366	0.704829	1.192404
	C159	C	0.508355	0.813529	0.937421
	C160	C	0.457549	0.689232	0.807330
	C161	C	0.566045	0.756032	1.061401
	C162	C	0.409659	0.702896	1.301419
	C163	C	0.510566	0.846075	0.828601
	C164	C	0.455767	0.657879	0.697503
	C165	C	0.598423	0.758521	1.170460
	H166	H	0.390428	0.795423	1.277077
	H167	H	0.482489	0.804152	0.447936
	H168	H	0.548474	0.638918	0.718943
	H169	H	0.555917	0.730163	1.551609
	H170	H	0.445889	0.798678	1.082862
	H171	H	0.476749	0.748213	0.639523
	H172	H	0.551459	0.693798	0.914551
	H173	H	0.500289	0.723934	1.359764
	H174	H	0.455248	0.678998	1.169413
	H175	H	0.516834	0.816269	1.074049
	H176	H	0.431640	0.702975	0.831142
	H177	H	0.568983	0.764539	0.924542
	H178	H	0.398707	0.675803	1.359603
	H179	H	0.520737	0.873681	0.880555
	H180	H	0.428711	0.647051	0.639507
	H181	H	0.626096	0.768917	1.118435
	N182	N	0.360004	0.733856	1.451590
	N183	N	0.504276	0.876938	0.542614
	N184	N	0.486871	0.608769	0.545468
	N185	N	0.628722	0.752803	1.457558
	C186	C	-0.005586	0.243140	1.003605
	C187	C	-0.011604	0.141170	0.666715
	C188	C	0.096648	0.254929	1.354409
	C189	C	-0.109036	0.237276	1.333362
	C190	C	-0.002300	0.346797	0.656787
	C191	C	0.023428	0.156374	0.737217
	C192	C	0.060178	0.243925	1.420420
	C193	C	-0.095031	0.271723	1.251790
	C194	C	-0.022920	0.312429	0.609785
	C195	C	0.025414	0.187857	0.846697
	C196	C	0.028157	0.239669	1.309940
	C197	C	-0.062765	0.273566	1.145911
	C198	C	-0.023217	0.279798	0.717461
	C199	C	-0.007074	0.206389	0.888097
	C200	C	0.030680	0.245755	1.128075
	C201	C	-0.042617	0.241443	1.118245
	C202	C	-0.004261	0.279752	0.880269
	C203	C	-0.042034	0.190551	0.818219
	C204	C	0.067425	0.256401	1.063118
	C205	C	-0.056849	0.207133	1.200669
	C206	C	0.015130	0.314611	0.929336
	C207	C	-0.044342	0.158920	0.709970
	C208	C	0.099659	0.260502	1.172605
	C209	C	-0.089137	0.205040	1.306064
	C210	C	0.016389	0.347092	0.820340
	H211	H	0.049141	0.142889	0.706930
	H212	H	0.056619	0.239955	1.560603
	H213	H	-0.110024	0.297039	1.270748
	H214	H	-0.038964	0.310681	0.487697
	H215	H	0.053006	0.197816	0.900462
	H216	H	0.000719	0.232098	1.369620
	H217	H	-0.053047	0.300595	1.084208
	H218	H	-0.038814	0.253933	0.672233
	H219	H	-0.068170	0.203325	0.848392
	H220	H	0.070715	0.262354	0.923918
	H221	H	-0.042085	0.181639	1.182689
	H222	H	0.029505	0.316567	1.055783
	H223	H	-0.071784	0.147476	0.657969
	H224	H	0.127632	0.268856	1.118391
	H225	H	-0.099441	0.178149	1.368200
	H226	H	0.032351	0.373355	0.860561
	N227	N	-0.013811	0.110775	0.549402
	N228	N	0.129137	0.259078	1.463851
	N229	N	-0.140145	0.235347	1.448067
	N230	N	-0.002074	0.380812	0.556618
	C231	C	0.504872	0.422279	0.690443
	C232	C	0.508893	0.460056	0.625443
	C233	C	0.508488	0.490882	0.736891
	C234	C	0.504149	0.485461	0.918862
	C235	C	0.500684	0.447495	0.983201
	C236	C	0.501020	0.416671	0.871949
	C237	C	0.503554	0.518317	1.039419
	C238	C	0.481763	0.515359	1.193215
	C239	C	0.481776	0.545545	1.308276
	C240	C	0.503575	0.580242	1.275158
	C241	C	0.524722	0.583730	1.120154
	C242	C	0.524720	0.553482	1.005233
	H243	H	0.464581	0.542642	1.425536
	H244	H	0.498456	0.387770	0.925511
	H245	H	0.541423	0.610439	1.090940
	H246	H	0.512327	0.464952	0.485668
	H247	H	0.463935	0.489261	1.221101
	H248	H	0.498556	0.442087	1.123149
	H249	H	0.510817	0.519658	0.681748
	H250	H	0.541977	0.556864	0.888461
	C251	C	0.504695	0.389412	0.573409
	H252	H	0.500774	0.360885	0.635968
	C253	C	0.504246	0.611980	1.398762
	H254	H	0.520511	0.638815	1.358523
	C255	C	0.503887	1.084538	-0.259093
	C256	C	0.493035	1.048592	-0.329511
	C257	C	0.490888	1.015626	-0.224401
	C258	C	0.499367	1.016992	-0.043731
	C259	C	0.510986	1.053045	0.025140
	C260	C	0.513283	1.085959	-0.079989
	C261	C	0.495541	0.981998	0.071119
	C262	C	0.519771	0.977606	0.217284
	C263	C	0.515544	0.945350	0.326514
	C264	C	0.486736	0.915969	0.295476
	C265	C	0.462714	0.919943	0.148840
	C266	C	0.467055	0.952157	0.039404
	H267	H	0.534684	0.942506	0.438024
	H268	H	0.522531	1.113264	-0.023156
	H269	H	0.440428	0.897498	0.121198
	H270	H	0.486032	1.046878	-0.468112
	H271	H	0.542751	0.999437	0.243623
	H272	H	0.517357	1.055500	0.164043
	H273	H	0.483045	0.988252	-0.283788
	H274	H	0.447520	0.954727	-0.070632
	C275	C	0.504670	1.119926	-0.367181
	H276	H	0.510215	1.146589	-0.295103
	C277	C	0.482005	0.881838	0.411620
	H278	H	0.458010	0.860933	0.378788
	C279	C	0.333674	0.259471	1.274821
	C280	C	0.300794	0.236120	1.321435
	C281	C	0.268976	0.232279	1.210319
	C282	C	0.268596	0.251211	1.046109
	C283	C	0.301655	0.274677	1.000519
	C284	C	0.333339	0.278885	1.112361
	C285	C	0.234806	0.246403	0.925006
	C286	C	0.225316	0.276013	0.809787
	C287	C	0.194017	0.271461	0.695979
	C288	C	0.170578	0.237067	0.691679
	C289	C	0.179681	0.207453	0.806902
	C290	C	0.211074	0.212019	0.920383
	H291	H	0.187220	0.294771	0.608702
	H292	H	0.358454	0.296967	1.072786
	H293	H	0.161999	0.180604	0.806138
	H294	H	0.300452	0.221138	1.447209
	H295	H	0.242214	0.303303	0.811821
	H296	H	0.302919	0.289038	0.873402
	H297	H	0.243719	0.214854	1.253184
	H298	H	0.217870	0.188246	1.004561
	C299	C	0.367796	0.262815	1.390510
	H300	H	0.390858	0.284129	1.349736
	C301	C	0.137174	0.232563	0.572062
	H302	H	0.119646	0.205131	0.580004
	C303	C	0.672912	0.251926	1.308380
	C304	C	0.710702	0.256005	1.372390
	C305	C	0.741605	0.255819	1.260045
	C306	C	0.736231	0.251586	1.078283
	C307	C	0.698252	0.247931	1.015004
	C308	C	0.667370	0.248118	1.127074
	C309	C	0.769110	0.251369	0.956486
	C310	C	0.766448	0.229294	0.804387
	C311	C	0.796600	0.229723	0.687820
	C312	C	0.830930	0.252297	0.717529
	C313	C	0.834135	0.273746	0.870902
	C314	C	0.803938	0.273281	0.987469
	H315	H	0.793942	0.212283	0.571973
	H316	H	0.638464	0.245442	1.074253
	H317	H	0.860575	0.291040	0.897628
	H318	H	0.715543	0.259362	1.511985
	H319	H	0.740620	0.210926	0.779145
	H320	H	0.692899	0.245787	0.875233
	H321	H	0.770421	0.258263	1.314150
	H322	H	0.807041	0.290756	1.102940
	C323	C	0.639868	0.251904	1.425491
	H324	H	0.611459	0.248600	1.362337
	C325	C	0.862648	0.253346	0.592450
	H326	H	0.888951	0.270764	0.629097
	C327	C	0.503710	0.253943	0.999340
	C328	C	0.498783	0.153029	1.363501
	C329	C	0.507833	0.360750	1.303627
	C330	C	0.403083	0.244179	0.637210
	C331	C	0.610500	0.255429	0.694315
	C332	C	0.520117	0.187424	1.404206
	C333	C	0.473422	0.344864	1.230272
	C334	C	0.440246	0.253362	0.574828
	C335	C	0.594842	0.221804	0.777124
	C336	C	0.520701	0.219270	1.291457
	C337	C	0.472119	0.311652	1.132317
	C338	C	0.471801	0.256479	0.688575
	C339	C	0.561377	0.221334	0.874269
	C340	C	0.501330	0.218465	1.129601
	C341	C	0.504674	0.291999	1.105926
	C342	C	0.468244	0.250882	0.870199
	C343	C	0.541581	0.254084	0.891213
	C344	C	0.481156	0.183560	1.087035
	C345	C	0.539023	0.308373	1.179689
	C346	C	0.431002	0.241225	0.931276
	C347	C	0.557215	0.287476	0.805557
	C348	C	0.479580	0.151908	1.201140
	C349	C	0.540667	0.341667	1.277099
	C350	C	0.399278	0.238219	0.818539
	C351	C	0.590699	0.288215	0.708662
	H352	H	0.536697	0.189720	1.524735
	H353	H	0.447694	0.359287	1.249066
	H354	H	0.445014	0.256942	0.435326
	H355	H	0.609558	0.196033	0.765988
	H356	H	0.537014	0.245142	1.331572
	H357	H	0.445001	0.301429	1.074652
	H358	H	0.499712	0.262984	0.631939
	H359	H	0.550563	0.194873	0.937990
	H360	H	0.466583	0.180732	0.961333
	H361	H	0.565217	0.294847	1.159916
	H362	H	0.426858	0.235518	1.070168
	H363	H	0.542638	0.313331	0.814855
	H364	H	0.463200	0.125539	1.165332
	H365	H	0.567655	0.353509	1.332378
	H366	H	0.370909	0.230446	0.869598
	H367	H	0.602123	0.314473	0.644282
	N368	N	0.498367	0.119597	1.467654
	N369	N	0.508719	0.393390	1.407403
	N370	N	0.370384	0.242003	0.528768
	N371	N	0.643451	0.255551	0.591591
