data_Molecule from CHK

_cell_length_a		25.131450
_cell_length_b		25.127410
_cell_length_c		6.925149
_cell_angle_alpha	88.192397
_cell_angle_beta	91.801798
_cell_angle_gamma	109.292028
_symmetry_space_group_name_H-M	'P 1'
_symmetry_Int_Tables_number		1

loop_
	_symmetry_equiv_pos_as_xyz
	x,y,z

loop_
	_atom_site_label
	_atom_site_type_symbol
	_atom_site_fract_x
	_atom_site_fract_y
	_atom_site_fract_z
	C0	C	0.019192	0.769258	1.000812
	C1	C	-0.012107	0.621631	1.408369
	C2	C	0.034481	0.910166	1.389211
	C3	C	-0.128418	0.738311	0.593509
	C4	C	0.160064	0.784844	0.611950
	C5	C	0.015550	0.677076	1.464877
	C6	C	-0.014227	0.887098	1.274557
	C7	C	-0.072987	0.766143	0.537262
	C8	C	0.136923	0.736003	0.725961
	C9	C	0.026866	0.722652	1.334950
	C10	C	-0.017662	0.845442	1.141180
	C11	C	-0.027427	0.777298	0.667149
	C12	C	0.095287	0.732475	0.859493
	C13	C	0.008510	0.716428	1.142307
	C14	C	0.026630	0.824021	1.118177
	C15	C	-0.033619	0.758385	0.859232
	C16	C	0.073957	0.776798	0.883297
	C17	C	-0.020351	0.660700	1.085984
	C18	C	0.077656	0.853077	1.213201
	C19	C	-0.089366	0.729689	0.915647
	C20	C	0.103068	0.827920	0.788870
	C21	C	-0.030638	0.614522	1.215239
	C22	C	0.081718	0.895790	1.342786
	C23	C	-0.135534	0.719568	0.786447
	C24	C	0.145769	0.832075	0.659146
	H25	H	0.026815	0.684842	1.615361
	H26	H	-0.050178	0.900954	1.292645
	H27	H	-0.065209	0.777691	0.386975
	H28	H	0.150722	0.700036	0.707301
	H29	H	0.050081	0.763950	1.387531
	H30	H	-0.056463	0.828114	1.058469
	H31	H	0.013858	0.800689	0.614859
	H32	H	0.077912	0.693583	0.941730
	H33	H	-0.035129	0.653307	0.937287
	H34	H	0.114288	0.840548	1.190392
	H35	H	-0.096759	0.714802	1.064250
	H36	H	0.090601	0.864562	0.812238
	H37	H	-0.053657	0.572331	1.167415
	H38	H	0.121387	0.917685	1.414986
	H39	H	-0.177726	0.696545	0.834214
	H40	H	0.167719	0.871820	0.587431
	N41	N	-0.023427	0.577149	1.547708
	N42	N	0.038013	0.946481	1.543796
	N43	N	-0.172864	0.727075	0.454086
	N44	N	0.196376	0.788508	0.457263
	C45	C	0.280088	0.752104	0.826983
	C46	C	0.220186	0.748789	1.170108
	C47	C	0.246342	0.700562	0.908217
	C48	C	0.254150	0.800313	1.089411
	C49	C	0.216830	0.698946	1.075994
	C50	C	0.283660	0.801928	0.921618
	H51	H	0.309287	0.841978	0.859689
	H52	H	0.191316	0.658890	1.138194
	H53	H	0.256295	0.838879	1.159999
	H54	H	0.244299	0.661988	0.837889
	C55	C	0.312883	0.754260	0.651971
	H56	H	0.346686	0.794489	0.625348
	C57	C	0.187615	0.746567	1.345714
	H58	H	0.153861	0.706311	1.372466
	C59	C	0.714784	0.743181	0.832273
	C60	C	0.786267	0.758379	1.166430
	C61	C	0.755600	0.795641	0.869830
	C62	C	0.745313	0.705971	1.129286
	C63	C	0.790671	0.803052	1.033206
	C64	C	0.710243	0.698558	0.965847
	H65	H	0.678629	0.657895	0.939970
	H66	H	0.822167	0.843767	1.059348
	H67	H	0.741798	0.671378	1.231166
	H68	H	0.759019	0.830293	0.768296
	C69	C	0.675128	0.735288	0.665192
	H70	H	0.645069	0.692355	0.650313
	C71	C	0.825552	0.766627	1.334587
	H72	H	0.855251	0.809734	1.349677
	C73	C	-0.007503	0.464478	1.168944
	C74	C	0.007799	0.536119	0.835121
	C75	C	0.044994	0.505238	1.131437
	C76	C	-0.044642	0.495210	0.872186
	C77	C	0.052457	0.540387	0.968226
	C78	C	-0.052107	0.460061	1.035462
	H79	H	-0.092796	0.428486	1.061284
	H80	H	0.093199	0.571841	0.942146
	H81	H	-0.079224	0.491796	0.770395
	H82	H	0.079633	0.508555	1.232892
	C83	C	-0.015444	0.424757	1.335885
	H84	H	-0.058389	0.394725	1.350720
	C85	C	0.016098	0.575487	0.667159
	H86	H	0.059210	0.605175	0.652141
	C87	C	0.001090	0.029792	1.174277
	C88	C	-0.001965	-0.029760	0.830496
	C89	C	-0.050387	-0.003834	1.092342
	C90	C	0.049490	0.004140	0.911771
	C91	C	-0.051875	-0.033170	0.924240
	C92	C	0.050977	0.033478	1.079879
	H93	H	0.090980	0.059004	1.142355
	H94	H	-0.091881	-0.058614	0.861561
	H95	H	0.088109	0.006342	0.841454
	H96	H	-0.089008	-0.005981	1.162532
	C97	C	0.003174	0.061992	1.350750
	H98	H	0.043392	0.095698	1.378309
	C99	C	-0.004063	-0.062206	0.654660
	H100	H	-0.044251	-0.096042	0.627811
	C101	C	0.481745	0.731221	0.999030
	C102	C	0.340635	0.715857	1.386465
	C103	C	0.515439	0.878407	0.588753
	C104	C	0.466071	0.590100	0.611200
	C105	C	0.628815	0.765248	1.409792
	C106	C	0.363725	0.764588	1.271863
	C107	C	0.485854	0.823182	0.534193
	C108	C	0.514877	0.613209	0.725379
	C109	C	0.573614	0.735552	1.464263
	C110	C	0.405500	0.768079	1.138924
	C111	C	0.473979	0.777763	0.664912
	C112	C	0.518452	0.654973	0.858460
	C113	C	0.528224	0.723552	1.333421
	C114	C	0.427093	0.723864	1.116760
	C115	C	0.492761	0.784008	0.857145
	C116	C	0.474256	0.676546	0.881181
	C117	C	0.534516	0.742003	1.140839
	C118	C	0.397860	0.672742	1.210969
	C119	C	0.521224	0.839795	0.913621
	C120	C	0.423082	0.647318	0.787332
	C121	C	0.590256	0.770822	1.084720
	C122	C	0.355071	0.668631	1.340250
	C123	C	0.532030	0.885854	0.783641
	C124	C	0.418884	0.604526	0.657940
	C125	C	0.636269	0.781832	1.214894
	H126	H	0.349636	0.800426	1.289222
	H127	H	0.473940	0.815327	0.384189
	H128	H	0.550711	0.599146	0.707615
	H129	H	0.565719	0.723885	1.614435
	H130	H	0.422641	0.806774	1.055448
	H131	H	0.450001	0.736562	0.613206
	H132	H	0.557201	0.672133	0.941589
	H133	H	0.487025	0.699591	1.385157
	H134	H	0.410391	0.636106	1.188163
	H135	H	0.535523	0.847273	1.062744
	H136	H	0.386472	0.659851	0.810492
	H137	H	0.597758	0.785150	0.935627
	H138	H	0.333153	0.628931	1.412303
	H139	H	0.554474	0.928142	0.831840
	H140	H	0.379137	0.582595	0.586241
	H141	H	0.678525	0.804481	1.166874
	N142	N	0.304190	0.712276	1.540655
	N143	N	0.525221	0.923111	0.450907
	N144	N	0.462386	0.553629	0.456986
	N145	N	0.673507	0.775239	1.547670
	C146	C	-0.019372	0.231117	1.001251
	C147	C	-0.035645	0.088045	0.619679
	C148	C	0.127811	0.265220	1.411498
	C149	C	-0.162603	0.214336	1.382558
	C150	C	0.014512	0.378326	0.591018
	C151	C	0.013852	0.112933	0.728648
	C152	C	0.072609	0.235665	1.466326
	C153	C	-0.137811	0.263892	1.273696
	C154	C	-0.015264	0.323143	0.536488
	C155	C	0.017525	0.155073	0.860286
	C156	C	0.027162	0.223694	1.335758
	C157	C	-0.095615	0.267717	1.142132
	C158	C	-0.027183	0.277695	0.667109
	C159	C	-0.026778	0.176462	0.883361
	C160	C	0.033417	0.241984	1.142995
	C161	C	-0.074077	0.223517	1.119034
	C162	C	-0.008633	0.283925	0.859603
	C163	C	-0.077901	0.147286	0.789132
	C164	C	0.089149	0.270740	1.086603
	C165	C	-0.103134	0.172333	1.213201
	C166	C	0.020252	0.339650	0.915803
	C167	C	-0.082291	0.103993	0.661654
	C168	C	0.135216	0.281730	1.216533
	C169	C	-0.146485	0.167787	1.340587
	C170	C	0.031221	0.385714	0.785817
	H171	H	0.049903	0.099245	0.710335
	H172	H	0.064786	0.223896	1.616446
	H173	H	-0.151605	0.299878	1.292066
	H174	H	-0.027215	0.315313	0.386510
	H175	H	0.056527	0.172785	0.941566
	H176	H	-0.013973	0.199569	1.387675
	H177	H	-0.077953	0.306762	1.060978
	H178	H	-0.051460	0.236570	0.615451
	H179	H	-0.114403	0.160100	0.811143
	H180	H	0.096605	0.285000	0.937427
	H181	H	-0.090166	0.135918	1.191255
	H182	H	0.034648	0.347103	1.064844
	H183	H	-0.121974	0.082353	0.589049
	H184	H	0.177472	0.304261	1.168240
	H185	H	-0.168038	0.128057	1.413122
	H186	H	0.053910	0.427957	0.833925
	N187	N	-0.038914	0.052918	0.461710
	N188	N	0.172542	0.275063	1.549194
	N189	N	-0.197769	0.210938	1.540534
	N190	N	0.024491	0.423067	0.453313
	C191	C	0.498657	0.469679	0.826940
	C192	C	0.502100	0.529430	1.170535
	C193	C	0.550205	0.503540	0.907715
	C194	C	0.450536	0.495738	1.089356
	C195	C	0.551884	0.532975	1.075723
	C196	C	0.448857	0.466299	0.921345
	H197	H	0.408781	0.440865	0.859115
	H198	H	0.591952	0.558556	1.137592
	H199	H	0.411994	0.493691	1.159884
	H200	H	0.588739	0.505744	0.836817
	C201	C	0.496349	0.437590	0.650042
	H202	H	0.456041	0.404010	0.622517
	C203	C	0.504356	0.562185	1.345729
	H204	H	0.544558	0.596069	1.371866
	C205	C	0.506820	1.035824	-0.166724
	C206	C	0.492589	0.964253	0.167030
	C207	C	0.454559	0.994793	-0.128214
	C208	C	0.544917	1.005111	0.128037
	C209	C	0.447622	0.959672	0.034977
	C210	C	0.551856	1.040231	-0.035153
	H211	H	0.592461	1.071787	-0.062367
	H212	H	0.407056	0.928022	0.061928
	H213	H	0.579835	1.008547	0.228364
	H214	H	0.419679	0.991271	-0.228798
	C215	C	0.514404	1.075290	-0.334259
	H216	H	0.557374	1.105134	-0.350769
	C217	C	0.485103	0.924577	0.333942
	H218	H	0.442194	0.894567	0.350028
	C219	C	0.285421	0.256778	1.166335
	C220	C	0.213822	0.242450	0.832708
	C221	C	0.244490	0.204458	1.127783
	C222	C	0.254570	0.294840	0.871770
	C223	C	0.209354	0.197472	0.964648
	C224	C	0.289706	0.301827	1.034894
	H225	H	0.321181	0.342480	1.062137
	H226	H	0.177788	0.156856	0.937645
	H227	H	0.257914	0.329767	0.771537
	H228	H	0.241062	0.169567	1.228263
	C229	C	0.324925	0.264412	1.333731
	H230	H	0.354729	0.307409	1.350164
	C231	C	0.174170	0.234905	0.665746
	H232	H	0.144112	0.192002	0.649950
	C233	C	0.719463	0.247771	1.171914
	C234	C	0.778988	0.250855	0.828026
	C235	C	0.753323	0.299240	1.090544
	C236	C	0.745335	0.199367	0.909889
	C237	C	0.782648	0.300743	0.922403
	C238	C	0.716009	0.197863	1.078041
	H239	H	0.690585	0.157844	1.140746
	H240	H	0.808194	0.340759	0.860007
	H241	H	0.743177	0.160746	0.839643
	H242	H	0.755591	0.337859	1.161022
	C243	C	0.687445	0.245655	1.348857
	H244	H	0.653831	0.205394	1.376787
	C245	C	0.811282	0.252970	0.651760
	H246	H	0.844825	0.293288	0.623924
	C247	C	0.518346	0.268375	0.999037
	C248	C	0.484238	0.121443	1.410565
	C249	C	0.534968	0.411477	1.380693
	C250	C	0.371207	0.234283	0.588600
	C251	C	0.661439	0.284548	0.617737
	C252	C	0.514019	0.176662	1.464683
	C253	C	0.485406	0.386630	1.271992
	C254	C	0.426380	0.264118	0.534175
	C255	C	0.636619	0.235102	0.727115
	C256	C	0.526048	0.222017	1.333661
	C257	C	0.481648	0.344536	1.140057
	C258	C	0.471786	0.276149	0.664921
	C259	C	0.594503	0.231476	0.858812
	C260	C	0.507514	0.215671	1.141184
	C261	C	0.525977	0.323254	1.115971
	C262	C	0.465543	0.257554	0.857366
	C263	C	0.573013	0.275740	0.881261
	C264	C	0.478621	0.159902	1.085399
	C265	C	0.577076	0.352196	1.210768
	C266	C	0.409818	0.228638	0.913490
	C267	C	0.602158	0.326839	0.786764
	C268	C	0.467593	0.113918	1.215766
	C269	C	0.581554	0.395457	1.338463
	C270	C	0.363778	0.217615	0.783419
	C271	C	0.645456	0.331202	0.659366
	H272	H	0.525750	0.184610	1.614760
	H273	H	0.449300	0.400168	1.291185
	H274	H	0.434254	0.275890	0.384078
	H275	H	0.650220	0.198998	0.708679
	H276	H	0.550113	0.263206	1.385270
	H277	H	0.442495	0.326633	1.059764
	H278	H	0.512937	0.300261	0.613116
	H279	H	0.576642	0.192421	0.939726
	H280	H	0.464262	0.152347	0.936358
	H281	H	0.613517	0.339283	1.188718
	H282	H	0.402338	0.214256	1.062544
	H283	H	0.589308	0.363340	0.808442
	H284	H	0.444903	0.071645	1.167961
	H285	H	0.621249	0.416982	1.411197
	H286	H	0.321538	0.194910	0.831472
	H287	H	0.667058	0.370860	0.586493
	N288	N	0.474299	0.076825	1.548829
	N289	N	0.538373	0.446563	1.538875
	N290	N	0.326540	0.224311	0.450577
	N291	N	0.696505	0.287784	0.459626
