data_Molecule from CHK

_cell_length_a		18.881228
_cell_length_b		18.963175
_cell_length_c		5.641358
_cell_angle_alpha	90.027358
_cell_angle_beta	89.990270
_cell_angle_gamma	97.197739
_symmetry_space_group_name_H-M	'P 1'
_symmetry_Int_Tables_number		1

loop_
	_symmetry_equiv_pos_as_xyz
	x,y,z

loop_
	_atom_site_label
	_atom_site_type_symbol
	_atom_site_fract_x
	_atom_site_fract_y
	_atom_site_fract_z
	C0	C	-0.001088	0.748846	0.245918
	C1	C	-0.012681	0.556493	0.718891
	C2	C	0.010752	0.939840	0.725224
	C3	C	-0.192085	0.730465	-0.234492
	C4	C	0.188821	0.766636	-0.238542
	C5	C	0.050161	0.601252	0.679919
	C6	C	-0.052674	0.896608	0.680252
	C7	C	-0.173035	0.792515	-0.105368
	C8	C	0.170971	0.705179	-0.105319
	C9	C	0.051641	0.661201	0.532477
	C10	C	-0.054232	0.836702	0.532204
	C11	C	-0.114084	0.798354	0.049788
	C12	C	0.112139	0.699341	0.050441
	C13	C	-0.007168	0.679197	0.407813
	C14	C	0.004751	0.818343	0.408968
	C15	C	-0.070102	0.744691	0.080521
	C16	C	0.068230	0.753069	0.081720
	C17	C	-0.068259	0.629305	0.432298
	C18	C	0.065910	0.868097	0.434456
	C19	C	-0.093778	0.682014	-0.040363
	C20	C	0.092287	0.815906	-0.037505
	C21	C	-0.070960	0.569422	0.580472
	C22	C	0.068695	0.927753	0.583793
	C23	C	-0.154471	0.673827	-0.185454
	C24	C	0.152696	0.823923	-0.183906
	H25	H	0.099217	0.589000	0.756556
	H26	H	-0.101758	0.909492	0.755183
	H27	H	-0.204124	0.836276	-0.123612
	H28	H	0.202210	0.661522	-0.123562
	H29	H	0.100726	0.696204	0.512750
	H30	H	-0.103567	0.802167	0.510656
	H31	H	-0.101062	0.848193	0.141291
	H32	H	0.099343	0.649557	0.142470
	H33	H	-0.117303	0.637921	0.344403
	H34	H	0.115086	0.859349	0.347597
	H35	H	-0.063695	0.637838	-0.016976
	H36	H	0.062508	0.860244	-0.012839
	H37	H	-0.119562	0.532826	0.594250
	H38	H	0.117285	0.964352	0.597768
	H39	H	-0.174063	0.623290	-0.263624
	H40	H	0.172585	0.874551	-0.260737
	N41	N	-0.025113	0.502285	0.913635
	N42	N	0.022552	0.995651	0.914736
	N43	N	-0.245661	0.721090	-0.429984
	N44	N	0.243708	0.776391	-0.429692
	O45	O	-0.087503	0.469327	0.925884
	O46	O	-0.275460	0.658718	-0.471432
	O47	O	0.272661	0.838977	-0.472212
	O48	O	0.084470	1.029779	0.923355
	C49	C	0.498973	0.749371	0.754097
	C50	C	0.486783	0.556752	0.281315
	C51	C	0.688670	0.766493	1.239266
	C52	C	0.308014	0.731085	1.234689
	C53	C	0.511039	0.940249	0.274676
	C54	C	0.549710	0.601422	0.319969
	C55	C	0.670711	0.705084	1.105722
	C56	C	0.327107	0.793175	1.105987
	C57	C	0.447550	0.897183	0.320137
	C58	C	0.551335	0.661529	0.466963
	C59	C	0.611890	0.699406	0.949944
	C60	C	0.386066	0.799030	0.950797
	C61	C	0.445908	0.837358	0.468417
	C62	C	0.492628	0.679718	0.591834
	C63	C	0.568297	0.753373	0.918158
	C64	C	0.430015	0.745336	0.919738
	C65	C	0.504884	0.818898	0.591342
	C66	C	0.431487	0.629833	0.568056
	C67	C	0.592569	0.816174	1.037423
	C68	C	0.406360	0.682664	1.040490
	C69	C	0.566095	0.868565	0.565642
	C70	C	0.428606	0.569856	0.420015
	C71	C	0.652856	0.823954	1.184325
	C72	C	0.345641	0.674458	1.185449
	C73	C	0.568970	0.928130	0.416017
	H74	H	0.598715	0.588983	0.243348
	H75	H	0.701798	0.661316	1.123896
	H76	H	0.296017	0.836933	1.124569
	H77	H	0.398471	0.910046	0.245254
	H78	H	0.600593	0.696210	0.487534
	H79	H	0.599188	0.649757	0.856898
	H80	H	0.399126	0.848907	0.859648
	H81	H	0.396515	0.802922	0.490110
	H82	H	0.382496	0.638571	0.656138
	H83	H	0.563041	0.860674	1.012604
	H84	H	0.436482	0.638509	1.017098
	H85	H	0.615265	0.859789	0.652415
	H86	H	0.379943	0.533333	0.406513
	H87	H	0.672885	0.874536	1.261352
	H88	H	0.326018	0.623911	1.263347
	H89	H	0.617636	0.964606	0.401701
	N90	N	0.474134	0.502613	0.086252
	N91	N	0.743151	0.776084	1.431720
	N92	N	0.254407	0.721605	1.430055
	N93	N	0.523104	0.995517	0.083474
	O94	O	0.412146	0.468685	0.077101
	O95	O	0.224714	0.659183	1.471173
	O96	O	0.585432	1.028663	0.072158
	O97	O	0.772844	0.838492	1.472842
	C98	C	-0.000950	0.249270	0.753706
	C99	C	-0.190652	0.231903	1.239275
	C100	C	0.011485	0.440120	0.274196
	C101	C	-0.013735	0.057988	0.275276
	C102	C	0.188657	0.266336	1.239647
	C103	C	-0.172548	0.293436	1.106717
	C104	C	-0.052091	0.397284	0.320234
	C105	C	0.049876	0.100864	0.320682
	C106	C	0.170443	0.204817	1.106939
	C107	C	-0.113598	0.299238	0.951459
	C108	C	-0.053784	0.337421	0.468322
	C109	C	0.051691	0.160807	0.468630
	C110	C	0.111589	0.199169	0.951353
	C111	C	-0.070015	0.245298	0.919049
	C112	C	0.005175	0.318768	0.590802
	C113	C	-0.007204	0.179631	0.591160
	C114	C	0.068249	0.253268	0.918420
	C115	C	-0.094426	0.182367	1.037257
	C116	C	0.066448	0.368365	0.565155
	C117	C	-0.068601	0.130198	0.565384
	C118	C	0.092747	0.316138	1.036939
	C119	C	-0.154838	0.174477	1.183681
	C120	C	0.069412	0.427917	0.415423
	C121	C	-0.071634	0.070441	0.416341
	C122	C	0.153046	0.323872	1.183836
	H123	H	-0.203705	0.337150	1.125121
	H124	H	-0.101168	0.410294	0.245773
	H125	H	0.098915	0.087688	0.246241
	H126	H	0.201379	0.160949	1.125403
	H127	H	-0.100780	0.348964	0.859231
	H128	H	-0.103332	0.303380	0.491612
	H129	H	0.101198	0.194991	0.490830
	H130	H	0.098678	0.149461	0.859030
	H131	H	-0.064924	0.137856	1.011923
	H132	H	0.115614	0.359464	0.651705
	H133	H	-0.117735	0.139295	0.651844
	H134	H	0.063415	0.360744	1.011439
	H135	H	-0.175055	0.123802	1.259514
	H136	H	0.118137	0.464295	0.400821
	H137	H	-0.120363	0.034047	0.402260
	H138	H	0.173274	0.374522	1.259980
	N139	N	-0.245898	0.222123	1.429186
	N140	N	0.023690	0.495015	0.081902
	N141	N	-0.025653	0.002147	0.085868
	N142	N	0.243488	0.275973	1.431046
	O143	O	-0.275389	0.159604	1.469831
	O144	O	-0.087592	-0.031930	0.077244
	O145	O	0.272409	0.338549	1.474109
	O146	O	0.085784	0.528701	0.071929
	C147	C	0.498800	0.249093	0.246676
	C148	C	0.487056	0.056590	0.719238
	C149	C	0.510688	0.440053	0.726244
	C150	C	0.307786	0.230622	-0.233565
	C151	C	0.688575	0.266862	-0.238348
	C152	C	0.549933	0.101307	0.680298
	C153	C	0.447238	0.396878	0.681107
	C154	C	0.326855	0.292720	-0.104708
	C155	C	0.670729	0.205363	-0.105337
	C156	C	0.551473	0.161290	0.532948
	C157	C	0.445646	0.337014	0.532823
	C158	C	0.385819	0.298610	0.050408
	C159	C	0.611938	0.199515	0.050630
	C160	C	0.492676	0.179415	0.408519
	C161	C	0.504631	0.318610	0.409678
	C162	C	0.429794	0.244944	0.081289
	C163	C	0.568098	0.253288	0.082358
	C164	C	0.431534	0.129589	0.433067
	C165	C	0.565796	0.368350	0.435218
	C166	C	0.406122	0.182233	-0.039406
	C167	C	0.592188	0.316156	-0.036637
	C168	C	0.428788	0.069640	0.580977
	C169	C	0.568614	0.427971	0.584730
	C170	C	0.345408	0.174000	-0.184361
	C171	C	0.652558	0.324179	-0.183197
	H172	H	0.598980	0.088986	0.756838
	H173	H	0.398165	0.409699	0.756272
	H174	H	0.295755	0.336468	-0.123098
	H175	H	0.701970	0.161719	-0.123931
	H176	H	0.600601	0.196215	0.513103
	H177	H	0.396290	0.302508	0.511259
	H178	H	0.398862	0.348491	0.141686
	H179	H	0.599127	0.149704	0.142499
	H180	H	0.382483	0.138300	0.345391
	H181	H	0.614976	0.359607	0.348373
	H182	H	0.436218	0.138065	-0.016005
	H183	H	0.562473	0.360524	-0.011687
	H184	H	0.380151	0.033089	0.594674
	H185	H	0.617228	0.464534	0.598803
	H186	H	0.325805	0.123432	-0.262296
	H187	H	0.672513	0.374825	-0.259790
	N188	N	0.474595	0.002285	0.913710
	N189	N	0.522740	0.495443	0.917171
	N190	N	0.254235	0.221147	-0.429117
	N191	N	0.743416	0.276709	-0.429494
	O192	O	0.412230	-0.030746	0.925518
	O193	O	0.224681	0.158698	-0.470774
	O194	O	0.773487	0.339114	-0.468283
	O195	O	0.584961	0.528861	0.927601
