data_Molecule from CHK

_cell_length_a		19.695671
_cell_length_b		19.930131
_cell_length_c		8.293515
_cell_angle_alpha	86.042742
_cell_angle_beta	93.348220
_cell_angle_gamma	82.210452
_symmetry_space_group_name_H-M	'P 1'
_symmetry_Int_Tables_number		1

loop_
	_symmetry_equiv_pos_as_xyz
	x,y,z

loop_
	_atom_site_label
	_atom_site_type_symbol
	_atom_site_fract_x
	_atom_site_fract_y
	_atom_site_fract_z
	C0	C	0.000803	0.754975	0.185214
	C1	C	-0.110620	0.622857	0.451409
	C2	C	0.012213	0.949430	0.395477
	C3	C	-0.170033	0.674959	-0.023879
	C4	C	0.190895	0.719578	-0.064585
	C5	C	-0.102637	0.685890	0.507977
	C6	C	-0.034541	0.946766	0.263368
	C7	C	-0.106701	0.663125	-0.091530
	C8	C	0.183466	0.678260	0.074631
	C9	C	-0.053176	0.722938	0.448351
	C10	C	-0.038504	0.885555	0.193049
	C11	C	-0.055131	0.702062	-0.053278
	C12	C	0.123304	0.687927	0.156778
	C13	C	-0.014391	0.700251	0.321893
	C14	C	0.002727	0.825395	0.253810
	C15	C	-0.063622	0.748778	0.064931
	C16	C	0.069046	0.738784	0.102551
	C17	C	-0.015650	0.632808	0.284773
	C18	C	0.050864	0.829934	0.382740
	C19	C	-0.130373	0.766397	0.113443
	C20	C	0.078939	0.781485	-0.032758
	C21	C	-0.064205	0.594488	0.346216
	C22	C	0.055477	0.890583	0.453940
	C23	C	-0.183475	0.729498	0.071236
	C24	C	0.138958	0.773092	-0.113946
	H25	H	-0.140063	0.709438	0.584041
	H26	H	-0.069245	0.991479	0.217851
	H27	H	-0.095809	0.618963	-0.159061
	H28	H	0.225513	0.639442	0.118176
	H29	H	-0.052957	0.773974	0.484878
	H30	H	-0.074428	0.885306	0.089330
	H31	H	-0.005095	0.688308	-0.098356
	H32	H	0.119538	0.656509	0.266630
	H33	H	0.014772	0.612768	0.190004
	H34	H	0.085137	0.784683	0.429132
	H35	H	-0.139681	0.803403	0.202002
	H36	H	0.039108	0.823192	-0.073590
	H37	H	-0.071424	0.547475	0.295501
	H38	H	0.092166	0.893126	0.554446
	H39	H	-0.231643	0.737033	0.128141
	H40	H	0.145337	0.809971	-0.210983
	N41	N	-0.180629	0.604008	0.454503
	N42	N	0.016205	1.011494	0.479406
	N43	N	-0.205562	0.615189	0.006099
	N44	N	0.256477	0.711216	-0.142571
	O45	O	-0.229038	0.651493	0.406584
	O46	O	-0.168308	0.562855	0.077664
	O47	O	0.310408	0.684603	-0.058317
	O48	O	0.028277	1.006003	0.631951
	C49	C	0.530866	0.732667	0.459519
	C50	C	0.554125	0.552257	0.171399
	C51	C	0.684765	0.667904	0.862472
	C52	C	0.324299	0.729973	0.632108
	C53	C	0.538540	0.927254	0.177418
	C54	C	0.604308	0.560573	0.290540
	C55	C	0.615300	0.676582	0.890173
	C56	C	0.340496	0.789237	0.552896
	C57	C	0.534362	0.867992	0.099307
	C58	C	0.597527	0.617774	0.379666
	C59	C	0.566271	0.705089	0.767811
	C60	C	0.405673	0.790748	0.496391
	C61	C	0.534947	0.806019	0.189110
	C62	C	0.541272	0.669164	0.353875
	C63	C	0.584621	0.721738	0.610946
	C64	C	0.456213	0.733705	0.517276
	C65	C	0.537257	0.800576	0.358588
	C66	C	0.490712	0.658944	0.234831
	C67	C	0.654890	0.722035	0.593045
	C68	C	0.437218	0.673979	0.590180
	C69	C	0.542021	0.860647	0.434692
	C70	C	0.496753	0.602134	0.143756
	C71	C	0.704806	0.694088	0.715483
	C72	C	0.372899	0.671852	0.650328
	C73	C	0.541978	0.923059	0.346511
	H74	H	0.649034	0.522324	0.310919
	H75	H	0.600352	0.656306	1.004490
	H76	H	0.301894	0.833578	0.538005
	H77	H	0.529288	0.869547	-0.031110
	H78	H	0.637543	0.620219	0.472675
	H79	H	0.513056	0.708875	0.795204
	H80	H	0.416752	0.837409	0.435892
	H81	H	0.533119	0.761504	0.122920
	H82	H	0.444780	0.695898	0.213761
	H83	H	0.670793	0.738840	0.475856
	H84	H	0.474394	0.628241	0.602673
	H85	H	0.545196	0.858671	0.565855
	H86	H	0.456542	0.596024	0.054036
	H87	H	0.758092	0.687327	0.691003
	H88	H	0.360487	0.625651	0.709939
	H89	H	0.544965	0.968963	0.407219
	N90	N	0.563786	0.490960	0.081106
	N91	N	0.728932	0.613724	0.965088
	N92	N	0.257308	0.732038	0.700706
	N93	N	0.532417	0.994607	0.087292
	O94	O	0.590456	0.435252	0.156895
	O95	O	0.204235	0.757455	0.612199
	O96	O	0.504766	1.046145	0.153213
	O97	O	0.701802	0.561303	1.007301
	C98	C	-0.039725	0.295469	0.813823
	C99	C	-0.189805	0.176731	1.027131
	C100	C	-0.141185	0.490614	0.584918
	C101	C	0.000710	0.132276	0.485242
	C102	C	0.158550	0.305187	1.075593
	C103	C	-0.212773	0.243449	0.966539
	C104	C	-0.109826	0.442603	0.488437
	C105	C	0.051929	0.142858	0.599746
	C106	C	0.104085	0.287654	1.162794
	C107	C	-0.165085	0.284700	0.910457
	C108	C	-0.072978	0.382268	0.561389
	C109	C	0.040675	0.197048	0.697428
	C110	C	0.039241	0.287968	1.083544
	C111	C	-0.094263	0.261177	0.912142
	C112	C	-0.070608	0.366180	0.729475
	C113	C	-0.021685	0.241079	0.686656
	C114	C	0.027384	0.303903	0.916164
	C115	C	-0.073008	0.195375	0.981640
	C116	C	-0.100157	0.416481	0.823548
	C117	C	-0.072252	0.228899	0.570491
	C118	C	0.081870	0.325133	0.833737
	C119	C	-0.119640	0.153632	1.034138
	C120	C	-0.136966	0.476878	0.752492
	C121	C	-0.061291	0.175992	0.469314
	C122	C	0.146847	0.324345	0.910376
	H123	H	-0.267209	0.261410	0.952564
	H124	H	-0.118337	0.451036	0.358309
	H125	H	0.099084	0.107731	0.614109
	H126	H	0.112999	0.271560	1.290150
	H127	H	-0.185157	0.334617	0.854323
	H128	H	-0.048018	0.346349	0.484196
	H129	H	0.080738	0.201977	0.788890
	H130	H	-0.001898	0.273248	1.153007
	H131	H	-0.019454	0.173590	0.984447
	H132	H	-0.097640	0.406743	0.954018
	H133	H	-0.122049	0.260004	0.562858
	H134	H	0.074201	0.339711	0.704999
	H135	H	-0.102202	0.100763	1.070258
	H136	H	-0.166674	0.511509	0.824241
	H137	H	-0.100865	0.165937	0.382418
	H138	H	0.189247	0.337161	0.842848
	N139	N	-0.233104	0.122048	1.040884
	N140	N	-0.194525	0.544553	0.514845
	N141	N	0.006371	0.071622	0.393848
	N142	N	0.230126	0.295190	1.144490
	O143	O	-0.207893	0.066158	0.986774
	O144	O	-0.001101	0.078544	0.241228
	O145	O	0.277249	0.274482	1.054292
	O146	O	-0.256045	0.533444	0.528383
	C147	C	0.534939	0.260334	0.543262
	C148	C	0.551438	0.066285	0.850949
	C149	C	0.553092	0.434860	0.832680
	C150	C	0.317183	0.298664	0.354770
	C151	C	0.672464	0.183082	0.185802
	C152	C	0.491963	0.113546	0.842842
	C153	C	0.571386	0.437058	0.672373
	C154	C	0.356101	0.235041	0.348753
	C155	C	0.700783	0.209793	0.321127
	C156	C	0.487956	0.174655	0.746750
	C157	C	0.569876	0.380239	0.582323
	C158	C	0.424730	0.223947	0.408678
	C159	C	0.656623	0.243551	0.426153
	C160	C	0.541859	0.191051	0.654226
	C161	C	0.549921	0.319814	0.648212
	C162	C	0.457325	0.275334	0.474301
	C163	C	0.584680	0.249314	0.401550
	C164	C	0.599844	0.141475	0.661553
	C165	C	0.535142	0.318272	0.811573
	C166	C	0.416353	0.338177	0.482316
	C167	C	0.559466	0.232972	0.250279
	C168	C	0.604675	0.080150	0.756274
	C169	C	0.536419	0.374255	0.902950
	C170	C	0.347127	0.349745	0.426034
	C171	C	0.602212	0.198591	0.146050
	H172	H	0.448994	0.102258	0.909842
	H173	H	0.585265	0.483991	0.619253
	H174	H	0.332610	0.194654	0.297736
	H175	H	0.755227	0.198355	0.352304
	H176	H	0.440885	0.210040	0.743114
	H177	H	0.581780	0.384136	0.456418
	H178	H	0.453668	0.173811	0.404268
	H179	H	0.678071	0.260362	0.537147
	H180	H	0.643133	0.148411	0.591910
	H181	H	0.519284	0.273604	0.870180
	H182	H	0.438046	0.379610	0.533676
	H183	H	0.505237	0.241965	0.214992
	H184	H	0.650139	0.042723	0.760779
	H185	H	0.521077	0.371460	1.025753
	H186	H	0.316046	0.398220	0.434172
	H187	H	0.580876	0.177534	0.041180
	N188	N	0.558113	-0.000634	0.942016
	N189	N	0.547407	0.496698	0.921705
	N190	N	0.244358	0.310652	0.295599
	N191	N	0.706945	0.125647	0.105060
	O192	O	0.589311	-0.051239	0.879116
	O193	O	0.199734	0.339131	0.381857
	O194	O	0.674008	0.074757	0.101232
	O195	O	0.525565	0.553131	0.843860
