data_Molecule from CHK

_cell_length_a		22.607855
_cell_length_b		22.746052
_cell_length_c		7.124909
_cell_angle_alpha	90.673391
_cell_angle_beta	89.349920
_cell_angle_gamma	81.358971
_symmetry_space_group_name_H-M	'P 1'
_symmetry_Int_Tables_number		1

loop_
	_symmetry_equiv_pos_as_xyz
	x,y,z

loop_
	_atom_site_label
	_atom_site_type_symbol
	_atom_site_fract_x
	_atom_site_fract_y
	_atom_site_fract_z
	C0	C	-0.195289	0.764945	-0.309236
	C1	C	0.009738	0.532304	0.768646
	C2	C	-0.009459	0.940800	0.809284
	C3	C	0.214126	0.728927	-0.259246
	C4	C	-0.156320	0.711817	-0.289793
	C5	C	0.059743	0.559739	0.734712
	C6	C	0.039901	0.896355	0.789874
	C7	C	0.185628	0.679410	-0.234177
	C8	C	-0.114525	0.705568	-0.145609
	C9	C	0.057291	0.605000	0.603124
	C10	C	0.040913	0.851794	0.653028
	C11	C	0.137756	0.682263	-0.107112
	C12	C	-0.109074	0.751555	-0.017104
	C13	C	0.006246	0.623780	0.497223
	C14	C	-0.007029	0.848439	0.532368
	C15	C	0.117563	0.733053	0.002137
	C16	C	-0.150302	0.803716	-0.035470
	C17	C	-0.041847	0.592128	0.524280
	C18	C	-0.056369	0.893410	0.554711
	C19	C	0.149649	0.780948	-0.018959
	C20	C	-0.192047	0.810833	-0.179995
	C21	C	-0.040947	0.547826	0.659751
	C22	C	-0.057977	0.938425	0.691237
	C23	C	0.196355	0.779827	-0.150131
	H24	H	-0.157007	0.675611	-0.388076
	H25	H	0.099708	0.545550	0.813998
	H26	H	0.077789	0.894884	0.880509
	H27	H	0.201391	0.639644	-0.315487
	H28	H	-0.084168	0.664085	-0.135965
	H29	H	0.096109	0.626764	0.582090
	H30	H	0.080205	0.818122	0.641681
	H31	H	0.115532	0.643843	-0.090040
	H32	H	-0.149276	0.840623	0.061110
	H33	H	-0.081719	0.602739	0.441087
	H34	H	-0.095081	0.892956	0.466907
	H35	H	0.137939	0.820698	0.066643
	H36	H	-0.222117	0.852158	-0.194474
	H37	H	-0.079215	0.525178	0.679812
	H38	H	-0.097075	0.971894	0.707733
	H39	H	0.219253	0.817805	-0.168084
	N40	N	-0.235112	0.776986	-0.471636
	N41	N	0.012922	0.489272	0.921746
	N42	N	-0.014973	0.986862	0.959201
	N43	N	0.261762	0.726027	-0.401784
	O44	O	-0.244492	0.829657	-0.532838
	O45	O	-0.067010	1.012752	1.003657
	O46	O	0.306109	0.685285	-0.389240
	O47	O	0.061010	0.453520	0.942753
	C48	C	-0.003910	0.795119	0.391929
	C49	C	0.052926	0.790504	0.264620
	C50	C	0.060303	0.735939	0.128076
	H51	H	0.049724	0.831795	0.185875
	H52	H	0.093008	0.787652	0.350245
	C53	C	0.060810	0.678824	0.248081
	C54	C	0.003409	0.680212	0.373366
	H55	H	0.064393	0.639122	0.158738
	H56	H	0.101003	0.674552	0.333290
	C57	C	-0.000953	0.736296	0.501939
	H58	H	-0.040801	0.739159	0.591628
	H59	H	0.037623	0.731570	0.594317
	C60	C	-0.058601	0.799687	0.259078
	C61	C	0.003716	0.741571	0.004921
	C62	C	-0.055566	0.745576	0.120744
	H63	H	0.001592	0.781310	-0.080946
	H64	H	0.007546	0.703428	-0.091245
	C65	C	-0.051891	0.688706	0.242129
	H66	H	-0.099804	0.802584	0.342864
	H67	H	-0.060176	0.840590	0.178924
	H68	H	-0.093298	0.692383	0.324826
	H69	H	-0.049925	0.649217	0.152167
	C70	C	0.298140	0.762282	1.303290
	C71	C	0.701424	0.744926	1.286838
	C72	C	0.476349	0.967649	0.220453
	C73	C	0.512258	0.568109	0.173992
	C74	C	0.300066	0.813420	1.197966
	C75	C	0.658754	0.795833	1.278705
	C76	C	0.430653	0.933619	0.244964
	C77	C	0.465543	0.575679	0.305850
	C78	C	0.343842	0.814701	1.057770
	C79	C	0.615967	0.801305	1.137447
	C80	C	0.435924	0.889359	0.380269
	C81	C	0.464951	0.617168	0.452887
	C82	C	0.388265	0.765877	1.020216
	C83	C	0.612964	0.756431	1.002455
	C84	C	0.485825	0.877972	0.497242
	C85	C	0.509164	0.653932	0.471080
	C86	C	0.384266	0.714848	1.125000
	C87	C	0.658223	0.707073	1.008486
	C88	C	0.529555	0.915180	0.476090
	C89	C	0.556632	0.643775	0.340741
	C90	C	0.339943	0.712277	1.261292
	C91	C	0.701187	0.700759	1.149477
	C92	C	0.525630	0.958917	0.338423
	C93	C	0.558272	0.602097	0.194589
	H94	H	0.267037	0.852088	1.227127
	H95	H	0.657627	0.830507	1.383762
	H96	H	0.392037	0.941753	0.155856
	H97	H	0.428515	0.551082	0.293919
	H98	H	0.343934	0.855054	0.978906
	H99	H	0.582798	0.841014	1.135546
	H100	H	0.400769	0.862063	0.392909
	H101	H	0.427916	0.621825	0.552320
	H102	H	0.417078	0.675638	1.100060
	H103	H	0.659389	0.671757	0.904664
	H104	H	0.568340	0.909443	0.565598
	H105	H	0.592495	0.670283	0.350907
	H106	H	0.338425	0.670526	1.329499
	H107	H	0.734379	0.661341	1.155641
	H108	H	0.560421	0.986339	0.322808
	H109	H	0.594893	0.596177	0.094196
	N110	N	0.252902	0.763874	1.455363
	N111	N	0.741551	0.732605	1.448027
	N112	N	0.471811	1.010203	0.066415
	N113	N	0.512467	0.531495	0.000988
	O114	O	0.206666	0.803024	1.450140
	O115	O	0.423125	1.044792	0.043755
	O116	O	0.538741	0.548147	-0.142671
	O117	O	0.750775	0.679788	1.507843
	C118	C	0.492839	0.822766	0.626315
	C119	C	0.497841	0.766123	0.499923
	C120	C	0.504253	0.707542	0.611577
	H121	H	0.458419	0.767913	0.411640
	H122	H	0.536378	0.765495	0.405785
	C123	C	0.560508	0.704994	0.736918
	C124	C	0.557793	0.759943	0.871863
	H125	H	0.564263	0.664030	0.817422
	H126	H	0.600620	0.702268	0.648409
	C127	C	0.550195	0.816685	0.748935
	H128	H	0.548160	0.856270	0.838536
	H129	H	0.590093	0.814523	0.659705
	C130	C	0.437964	0.823442	0.761807
	C131	C	0.448471	0.711874	0.743874
	C132	C	0.442129	0.766151	0.882006
	H133	H	0.407812	0.715544	0.660764
	H134	H	0.451793	0.670456	0.821560
	C135	C	0.500527	0.761978	0.995829
	H136	H	0.435417	0.862724	0.853014
	H137	H	0.396678	0.827517	0.681831
	H138	H	0.496317	0.800147	1.092059
	H139	H	0.505429	0.722185	1.081858
	C140	C	-0.027659	0.448746	0.194658
	C141	C	0.026429	0.046267	0.193059
	C142	C	-0.206124	0.253068	1.277667
	C143	C	0.196229	0.241224	1.298003
	C144	C	-0.071920	0.413102	0.220349
	C145	C	-0.019288	0.050816	0.328057
	C146	C	-0.206902	0.298471	1.147380
	C147	C	0.153692	0.291788	1.278605
	C148	C	-0.065426	0.369664	0.358604
	C149	C	-0.024257	0.095707	0.465877
	C150	C	-0.160443	0.297412	1.015676
	C151	C	0.112820	0.294997	1.132066
	C152	C	-0.016162	0.361277	0.479102
	C153	C	0.016216	0.136708	0.476031
	C154	C	-0.111941	0.251072	1.006883
	C155	C	0.112334	0.248634	1.000778
	C156	C	0.025135	0.401113	0.459323
	C157	C	0.063838	0.128440	0.345815
	C158	C	-0.114125	0.204429	1.132817
	C159	C	0.158640	0.200475	1.014761
	C160	C	0.020020	0.444051	0.318921
	C161	C	0.069419	0.083954	0.207519
	C162	C	-0.160364	0.204686	1.264931
	C163	C	0.199680	0.196400	1.161200
	H164	H	-0.110064	0.418847	0.128914
	H165	H	-0.050821	0.019592	0.325997
	H166	H	-0.244004	0.334488	1.150815
	H167	H	0.150523	0.327746	1.379755
	H168	H	-0.099132	0.340650	0.370701
	H169	H	-0.060927	0.098815	0.566358
	H170	H	-0.162583	0.333571	0.917581
	H171	H	0.079122	0.334080	1.122640
	H172	H	0.062926	0.398133	0.552616
	H173	H	0.097215	0.157925	0.351710
	H174	H	-0.078639	0.166641	1.127310
	H175	H	0.162295	0.164402	0.912784
	H176	H	0.053041	0.473492	0.304200
	H177	H	0.106540	0.078538	0.108890
	H178	H	-0.160637	0.166955	1.355083
	H179	H	0.233855	0.157951	1.172878
	N180	N	-0.033324	0.491798	0.041585
	N181	N	0.033857	0.000494	0.043309
	N182	N	-0.256102	0.256711	1.414025
	N183	N	0.235607	0.231488	1.461837
	O184	O	-0.081465	0.527522	0.024565
	O185	O	-0.306799	0.283068	1.365339
	O186	O	0.248411	0.178648	1.519784
	O187	O	0.086551	-0.019462	-0.012128
	C188	C	-0.056997	0.250835	0.872799
	C189	C	0.000510	0.250199	0.989363
	C190	C	0.058180	0.248980	0.867441
	H191	H	-0.005575	0.289354	1.081630
	H192	H	0.006632	0.211299	1.079466
	C193	C	0.063714	0.192489	0.738268
	C194	C	0.008328	0.191635	0.611088
	H195	H	0.104103	0.190436	0.651276
	H196	H	0.068671	0.152399	0.823334
	C197	C	-0.047736	0.194805	0.742000
	H198	H	-0.087743	0.195497	0.657191
	H199	H	-0.043496	0.154719	0.826779
	C200	C	-0.062566	0.306698	0.745477
	C201	C	0.049105	0.304413	0.738752
	C202	C	-0.007372	0.307101	0.613075
	H203	H	0.044879	0.344869	0.824945
	H204	H	0.089328	0.303116	0.651596
	C205	C	0.000301	0.249075	0.493008
	H206	H	-0.102860	0.307651	0.661748
	H207	H	-0.067792	0.347165	0.831983
	H208	H	-0.038631	0.248505	0.403981
	H209	H	0.038901	0.249102	0.399606
	C210	C	0.484277	0.447737	0.824678
	C211	C	0.703606	0.239145	-0.278529
	C212	C	0.295782	0.266953	-0.293194
	C213	C	0.513922	0.051543	0.797117
	C214	C	0.531217	0.439391	0.693635
	C215	C	0.702238	0.193672	-0.149691
	C216	C	0.338455	0.216254	-0.278745
	C217	C	0.560005	0.085069	0.772190
	C218	C	0.531035	0.398401	0.545502
	C219	C	0.655280	0.196376	-0.018806
	C220	C	0.380386	0.212042	-0.135258
	C221	C	0.555378	0.128713	0.635001
	C222	C	0.485719	0.362979	0.525444
	C223	C	0.608561	0.244528	-0.009183
	C224	C	0.382785	0.258063	-0.004111
	C225	C	0.506193	0.139317	0.514747
	C226	C	0.438152	0.373877	0.655263
	C227	C	0.612972	0.290971	-0.133847
	C228	C	0.337730	0.307409	-0.016507
	C229	C	0.462757	0.101716	0.533995
	C230	C	0.437302	0.415058	0.802454
	C231	C	0.659653	0.289092	-0.265049
	C232	C	0.295408	0.312338	-0.159522
	C233	C	0.466038	0.058576	0.673471
	H234	H	0.568839	0.463103	0.707367
	H235	H	0.738043	0.156375	-0.153677
	H236	H	0.340609	0.180482	-0.380225
	H237	H	0.598156	0.077547	0.863391
	H238	H	0.568211	0.392991	0.446597
	H239	H	0.655620	0.160099	0.078175
	H240	H	0.413393	0.172329	-0.128505
	H241	H	0.590581	0.156032	0.623528
	H242	H	0.401589	0.348295	0.643893
	H243	H	0.578705	0.329747	-0.127848
	H244	H	0.336179	0.343629	0.084266
	H245	H	0.424859	0.106549	0.440827
	H246	H	0.400578	0.421606	0.902460
	H247	H	0.661712	0.326674	-0.354492
	H248	H	0.262165	0.351578	-0.169883
	H249	H	0.431560	0.030719	0.687393
	N250	N	0.484472	0.484012	0.998165
	N251	N	0.753808	0.234513	-0.414448
	N252	N	0.255819	0.277381	-0.455774
	N253	N	0.518519	0.008094	0.948536
	O254	O	0.458399	0.467133	1.141852
	O255	O	0.243196	0.330192	-0.513892
	O256	O	0.567443	-0.026040	0.971756
	O257	O	0.804356	0.208071	-0.365118
	C258	C	0.437236	0.255121	0.129037
	C259	C	0.443435	0.199370	0.256458
	C260	C	0.500043	0.193652	0.382071
	H261	H	0.403004	0.202542	0.343630
	H262	H	0.445597	0.159183	0.169639
	C263	C	0.555693	0.191433	0.250021
	C264	C	0.553053	0.247335	0.124097
	H265	H	0.596180	0.188212	0.333795
	H266	H	0.558913	0.151262	0.162601
	C267	C	0.495274	0.251219	0.007314
	H268	H	0.491120	0.290296	-0.081860
	H269	H	0.499486	0.212325	-0.085799
	C270	C	0.434438	0.311136	0.259664
	C271	C	0.495177	0.251224	0.503499
	C272	C	0.490175	0.308899	0.386994
	H273	H	0.456224	0.253060	0.596534
	H274	H	0.534293	0.249625	0.592947
	C275	C	0.546533	0.302992	0.256332
	H276	H	0.431527	0.351355	0.175788
	H277	H	0.393885	0.314995	0.346526
	H278	H	0.544371	0.343312	0.173331
	H279	H	0.586683	0.299725	0.341399
