data_Molecule from CHK

_cell_length_a		27.467358
_cell_length_b		27.479583
_cell_length_c		7.404296
_cell_angle_alpha	91.877232
_cell_angle_beta	88.112838
_cell_angle_gamma	94.484706
_symmetry_space_group_name_H-M	'P 1'
_symmetry_Int_Tables_number		1

loop_
	_symmetry_equiv_pos_as_xyz
	x,y,z

loop_
	_atom_site_label
	_atom_site_type_symbol
	_atom_site_fract_x
	_atom_site_fract_y
	_atom_site_fract_z
	C0	C	-0.007032	0.742904	0.626044
	C1	C	-0.017495	0.617105	0.992170
	C2	C	-0.007736	0.877390	0.974419
	C3	C	-0.132749	0.732879	0.259492
	C4	C	0.127635	0.742915	0.277970
	C5	C	0.000383	0.663987	1.049975
	C6	C	-0.049845	0.858779	0.886296
	C7	C	-0.085868	0.751024	0.202405
	C8	C	0.108872	0.700584	0.364290
	C9	C	0.004318	0.702970	0.933430
	C10	C	-0.049610	0.816922	0.774114
	C11	C	-0.046908	0.754752	0.319082
	C12	C	0.066965	0.700601	0.476400
	C13	C	-0.010682	0.698113	0.754510
	C14	C	-0.007392	0.791908	0.742504
	C15	C	-0.051739	0.739087	0.497166
	C16	C	0.042045	0.742797	0.509709
	C17	C	-0.028988	0.651090	0.697545
	C18	C	0.035202	0.812525	0.823757
	C19	C	-0.098828	0.720838	0.553830
	C20	C	0.062776	0.785571	0.430075
	C21	C	-0.032566	0.611633	0.813192
	C22	C	0.035278	0.854217	0.936334
	C23	C	-0.138263	0.717459	0.438038
	C24	C	0.104529	0.785872	0.317628
	H25	H	0.010430	0.670294	1.189391
	H26	H	-0.083035	0.877343	0.908629
	H27	H	-0.079538	0.761473	0.063435
	H28	H	0.127361	0.667406	0.340635
	H29	H	0.018821	0.737943	0.986378
	H30	H	-0.083203	0.803602	0.710814
	H31	H	-0.011933	0.769509	0.266809
	H32	H	0.053533	0.666857	0.538325
	H33	H	-0.040649	0.645224	0.559519
	H34	H	0.068927	0.795118	0.799281
	H35	H	-0.104733	0.708971	0.691594
	H36	H	0.045422	0.819266	0.455717
	H37	H	-0.047238	0.575905	0.765442
	H38	H	0.068874	0.869279	0.996340
	H39	H	-0.174018	0.702708	0.485382
	H40	H	0.119698	0.819598	0.258926
	N41	N	-0.023376	0.578643	1.113997
	N42	N	-0.007723	0.919624	1.086697
	N43	N	-0.171154	0.727105	0.137364
	N44	N	0.169962	0.743191	0.166031
	C45	C	0.291647	0.752697	0.627410
	C46	C	0.209450	0.748420	0.869744
	C47	C	0.244348	0.756223	0.565056
	C48	C	0.256724	0.744669	0.931981
	C49	C	0.204059	0.754153	0.683801
	C50	C	0.297011	0.746732	0.813236
	H51	H	0.333208	0.743628	0.863313
	H52	H	0.167846	0.757121	0.633653
	H53	H	0.261255	0.740040	1.075110
	H54	H	0.239806	0.760735	0.421866
	C55	C	0.334591	0.754286	0.502127
	H56	H	0.370262	0.752471	0.563406
	C57	C	0.166481	0.746525	0.994941
	H58	H	0.130783	0.748107	0.933657
	C59	C	0.716515	0.745304	0.609027
	C60	C	0.785043	0.755926	0.888345
	C61	C	0.746213	0.788839	0.633323
	C62	C	0.755229	0.712450	0.864476
	C63	C	0.779868	0.794044	0.769990
	C64	C	0.721575	0.707241	0.727747
	H65	H	0.698704	0.673527	0.711733
	H66	H	0.802631	0.827818	0.786300
	H67	H	0.759068	0.682958	0.955511
	H68	H	0.742289	0.818395	0.542660
	C69	C	0.679484	0.740232	0.468208
	H70	H	0.657682	0.704988	0.460707
	C71	C	0.821669	0.761366	1.030497
	H72	H	0.843158	0.796792	1.038367
	C73	C	0.005381	0.534644	0.362627
	C74	C	-0.005278	0.465840	0.640945
	C75	C	-0.038122	0.504828	0.386118
	C76	C	0.038284	0.495542	0.617028
	C77	C	-0.043348	0.471036	0.522350
	C78	C	0.043506	0.529333	0.480859
	H79	H	0.077302	0.552091	0.464825
	H80	H	-0.077079	0.448161	0.538057
	H81	H	0.067846	0.491516	0.707599
	H82	H	-0.067617	0.508762	0.295151
	C83	C	0.010859	0.571387	0.220927
	H84	H	0.046296	0.592887	0.213381
	C85	C	-0.010356	0.428673	0.781238
	H86	H	-0.045678	0.406994	0.788960
	C87	C	0.001878	0.040803	0.626869
	C88	C	-0.002144	-0.041079	0.383274
	C89	C	0.006191	-0.006466	0.688075
	C90	C	-0.006663	0.006159	0.322154
	C91	C	0.004251	-0.046595	0.568740
	C92	C	-0.004716	0.046301	0.441526
	H93	H	-0.008406	0.082480	0.392417
	H94	H	0.007819	-0.082776	0.618067
	H95	H	-0.011807	0.010743	0.179375
	H96	H	0.011201	-0.011113	0.830909
	C97	C	0.003261	0.083488	0.753336
	H98	H	0.000636	0.119217	0.693637
	C99	C	-0.003944	-0.083914	0.257575
	H100	H	-0.001581	-0.119568	0.318223
	C101	C	0.508413	0.757157	0.872866
	C102	C	0.373513	0.757742	1.219304
	C103	C	0.521298	0.882264	0.503642
	C104	C	0.508575	0.622380	0.525989
	C105	C	0.633366	0.770193	1.242995
	C106	C	0.392288	0.799905	1.131919
	C107	C	0.501446	0.835870	0.448199
	C108	C	0.550745	0.640906	0.613929
	C109	C	0.586941	0.750307	1.298208
	C110	C	0.434314	0.799733	1.020491
	C111	C	0.496936	0.797074	0.565562
	C112	C	0.550685	0.682889	0.725494
	C113	C	0.548193	0.745709	1.180549
	C114	C	0.459409	0.757560	0.989355
	C115	C	0.512450	0.801845	0.743867
	C116	C	0.508613	0.708176	0.756276
	C117	C	0.553120	0.760885	1.001834
	C118	C	0.438504	0.714876	1.069125
	C119	C	0.530587	0.848915	0.800897
	C120	C	0.465886	0.687496	0.676091
	C121	C	0.600179	0.779233	0.945267
	C122	C	0.396652	0.714738	1.180993
	C123	C	0.534760	0.888196	0.684429
	C124	C	0.465645	0.645698	0.564029
	C125	C	0.639382	0.783568	1.062117
	H126	H	0.373621	0.833040	1.153713
	H127	H	0.490743	0.829647	0.309454
	H128	H	0.583807	0.622092	0.592382
	H129	H	0.580584	0.739862	1.437192
	H130	H	0.447608	0.833290	0.956945
	H131	H	0.481540	0.762314	0.513722
	H132	H	0.584250	0.696005	0.789419
	H133	H	0.513375	0.730380	1.232256
	H134	H	0.455864	0.681149	1.044359
	H135	H	0.541868	0.854890	0.939342
	H136	H	0.432216	0.705000	0.700601
	H137	H	0.606227	0.790477	0.806801
	H138	H	0.381419	0.681100	1.240178
	H139	H	0.549085	0.924019	0.732465
	H140	H	0.431981	0.630657	0.504461
	H141	H	0.675208	0.798015	1.014380
	N142	N	0.331151	0.757670	1.331028
	N143	N	0.525720	0.921102	0.383457
	N144	N	0.508433	0.580107	0.413842
	N145	N	0.672165	0.774877	1.363327
	C146	C	0.006694	0.257691	0.376853
	C147	C	0.006658	0.121147	0.039109
	C148	C	0.131728	0.271074	0.746575
	C149	C	-0.129905	0.257066	0.714839
	C150	C	0.019594	0.382566	0.006578
	C151	C	0.049362	0.141288	0.119680
	C152	C	0.085301	0.251298	0.802209
	C153	C	-0.110123	0.299738	0.633179
	C154	C	-0.000439	0.336189	-0.048317
	C155	C	0.049333	0.183721	0.228805
	C156	C	0.046502	0.246675	0.684793
	C157	C	-0.067673	0.299881	0.523963
	C158	C	-0.004941	0.297451	0.069350
	C159	C	0.007074	0.208648	0.260627
	C160	C	0.051398	0.261646	0.505824
	C161	C	-0.042386	0.257831	0.493067
	C162	C	0.010406	0.302361	0.247841
	C163	C	-0.035651	0.187666	0.181263
	C164	C	0.098437	0.280004	0.449003
	C165	C	-0.063036	0.215109	0.573321
	C166	C	0.028882	0.349379	0.304133
	C167	C	-0.035986	0.145318	0.072120
	C168	C	0.137689	0.284385	0.565628
	C169	C	-0.105391	0.214611	0.682609
	C170	C	0.033174	0.388556	0.187228
	H171	H	0.082641	0.122908	0.096665
	H172	H	0.079048	0.240784	0.941157
	H173	H	-0.128784	0.332860	0.655516
	H174	H	-0.011216	0.329883	-0.186931
	H175	H	0.083126	0.197563	0.289515
	H176	H	0.011755	0.231197	0.736595
	H177	H	-0.054082	0.333641	0.462489
	H178	H	-0.020608	0.262726	0.018164
	H179	H	-0.069309	0.205249	0.204823
	H180	H	0.104444	0.291183	0.310443
	H181	H	-0.045162	0.181602	0.550432
	H182	H	0.040251	0.355425	0.442445
	H183	H	-0.069626	0.130185	0.012608
	H184	H	0.173511	0.298761	0.517594
	H185	H	-0.120244	0.180979	0.742851
	H186	H	0.047727	0.424349	0.234754
	N187	N	0.006981	0.079534	-0.076014
	N188	N	0.170594	0.275572	0.866670
	N189	N	-0.171471	0.257298	0.830419
	N190	N	0.024260	0.421357	-0.113716
	C191	C	0.498188	0.459018	0.873340
	C192	C	0.502688	0.540860	1.117131
	C193	C	0.493727	0.506295	0.812485
	C194	C	0.506866	0.493555	1.178170
	C195	C	0.495904	0.546405	0.931918
	C196	C	0.504696	0.453433	1.058698
	H197	H	0.508182	0.417208	1.107743
	H198	H	0.492291	0.582602	0.882816
	H199	H	0.512009	0.488913	1.320916
	H200	H	0.488488	0.510971	0.669815
	C201	C	0.496381	0.416325	0.746890
	H202	H	0.498875	0.380566	0.806530
	C203	C	0.504493	0.583652	1.243028
	H204	H	0.502053	0.619316	1.182532
	C205	C	0.504395	1.034281	-0.138848
	C206	C	0.495121	0.965598	0.140009
	C207	C	0.460884	1.004716	-0.111641
	C208	C	0.538705	0.995015	0.112289
	C209	C	0.456337	0.970980	0.024823
	C210	C	0.543251	1.028751	-0.024160
	H211	H	0.577064	1.051312	-0.043129
	H212	H	0.422568	0.948332	0.043514
	H213	H	0.568818	0.990820	0.200167
	H214	H	0.430813	1.008833	-0.199798
	C215	C	0.509020	1.071113	-0.280337
	H216	H	0.544446	1.092535	-0.290855
	C217	C	0.490639	0.928525	0.280647
	H218	H	0.455285	0.906962	0.290786
	C219	C	0.284122	0.254456	0.388095
	C220	C	0.215248	0.245071	0.109855
	C221	C	0.254514	0.210961	0.361412
	C222	C	0.244703	0.288642	0.137064
	C223	C	0.220685	0.206359	0.225249
	C224	C	0.278533	0.293243	0.273218
	H225	H	0.301125	0.327043	0.291780
	H226	H	0.198011	0.172601	0.206955
	H227	H	0.240469	0.318698	0.049004
	H228	H	0.258674	0.180942	0.449723
	C229	C	0.321044	0.259125	0.529293
	H230	H	0.342513	0.294521	0.539430
	C231	C	0.178133	0.240509	-0.030654
	H232	H	0.156464	0.205214	-0.040117
	C233	C	0.708474	0.247638	0.373373
	C234	C	0.790011	0.251411	0.127926
	C235	C	0.755725	0.242248	0.432917
	C236	C	0.742725	0.256551	0.068243
	C237	C	0.795694	0.244068	0.312663
	C238	C	0.702757	0.254734	0.188494
	H239	H	0.666555	0.258947	0.140429
	H240	H	0.831878	0.239729	0.360652
	H241	H	0.737977	0.262141	-0.074144
	H242	H	0.760455	0.236547	0.575238
	C243	C	0.665913	0.246139	0.500538
	H244	H	0.630147	0.249190	0.441594
	C245	C	0.832544	0.252743	0.000645
	H246	H	0.868308	0.249672	0.059570
	C247	C	0.491852	0.241879	0.124583
	C248	C	0.367159	0.228741	-0.246656
	C249	C	0.628381	0.241913	-0.213606
	C250	C	0.478575	0.117199	0.495723
	C251	C	0.492323	0.378606	0.461383
	C252	C	0.413583	0.248733	-0.301360
	C253	C	0.608351	0.199273	-0.132379
	C254	C	0.498690	0.163567	0.550281
	C255	C	0.449580	0.358630	0.380640
	C256	C	0.452258	0.253333	-0.183388
	C257	C	0.565964	0.199324	-0.022868
	C258	C	0.503325	0.202223	0.432291
	C259	C	0.449464	0.316144	0.271729
	C260	C	0.447252	0.238067	-0.004809
	C261	C	0.541058	0.241576	0.009140
	C262	C	0.487949	0.197258	0.253858
	C263	C	0.491595	0.290980	0.240520
	C264	C	0.400173	0.219638	0.051267
	C265	C	0.561812	0.284199	-0.071508
	C266	C	0.469381	0.150239	0.197900
	C267	C	0.534368	0.311818	0.319947
	C268	C	0.361042	0.215286	-0.065914
	C269	C	0.604121	0.284510	-0.180974
	C270	C	0.465009	0.111120	0.315099
	C271	C	0.534855	0.354229	0.428735
	H272	H	0.419983	0.259287	-0.440200
	H273	H	0.626676	0.165984	-0.155762
	H274	H	0.509324	0.169944	0.689029
	H275	H	0.416356	0.377092	0.403788
	H276	H	0.487075	0.268744	-0.234773
	H277	H	0.552029	0.165520	0.037500
	H278	H	0.518859	0.236994	0.483519
	H279	H	0.415601	0.302265	0.211598
	H280	H	0.394037	0.208353	0.189646
	H281	H	0.544127	0.317811	-0.048452
	H282	H	0.458020	0.144138	0.059603
	H283	H	0.567944	0.294067	0.296797
	H284	H	0.325199	0.200796	-0.018519
	H285	H	0.619120	0.318098	-0.241158
	H286	H	0.450424	0.075320	0.267788
	H287	H	0.568532	0.369239	0.488303
	N288	N	0.328459	0.224144	-0.367482
	N289	N	0.669928	0.241582	-0.329240
	N290	N	0.473980	0.078526	0.616644
	N291	N	0.492221	0.420255	0.576421
