data_Molecule from CHK

_cell_length_a		35.060798
_cell_length_b		35.055153
_cell_length_c		6.957919
_cell_angle_alpha	87.649111
_cell_angle_beta	92.273330
_cell_angle_gamma	91.339964
_symmetry_space_group_name_H-M	'P 1'
_symmetry_Int_Tables_number		1

loop_
	_symmetry_equiv_pos_as_xyz
	x,y,z

loop_
	_atom_site_label
	_atom_site_type_symbol
	_atom_site_fract_x
	_atom_site_fract_y
	_atom_site_fract_z
	C0	C	0.003273	0.752394	0.501596
	C1	C	-0.003142	0.642736	0.842069
	C2	C	0.003673	0.861022	0.807578
	C3	C	-0.106245	0.746549	0.160447
	C4	C	0.111716	0.752390	0.193615
	C5	C	-0.034492	0.666737	0.818174
	C6	C	0.016902	0.858912	0.620689
	C7	C	-0.082523	0.715000	0.185538
	C8	C	0.109746	0.765546	0.380660
	C9	C	-0.031744	0.702053	0.718722
	C10	C	0.016587	0.824355	0.528693
	C11	C	-0.047270	0.717536	0.285422
	C12	C	0.075248	0.765320	0.473325
	C13	C	0.002260	0.715153	0.636128
	C14	C	0.003886	0.789926	0.617932
	C15	C	-0.034043	0.751477	0.367949
	C16	C	0.040736	0.752800	0.384633
	C17	C	0.033667	0.691197	0.663914
	C18	C	-0.008348	0.792096	0.806172
	C19	C	-0.057607	0.783136	0.337988
	C20	C	0.042773	0.740582	0.196363
	C21	C	0.031247	0.656036	0.764642
	C22	C	-0.008031	0.826665	0.899652
	C23	C	-0.092698	0.780927	0.236799
	C24	C	0.077285	0.740804	0.102217
	H25	H	-0.061537	0.656803	0.873921
	H26	H	0.027949	0.884332	0.546415
	H27	H	-0.092618	0.687984	0.130273
	H28	H	0.135220	0.776496	0.454535
	H29	H	-0.056884	0.719439	0.699319
	H30	H	0.026283	0.824000	0.382700
	H31	H	-0.030081	0.692267	0.305539
	H32	H	0.074997	0.774973	0.619371
	H33	H	0.060676	0.699475	0.603246
	H34	H	-0.018582	0.766545	0.881478
	H35	H	-0.049124	0.810162	0.397690
	H36	H	0.017153	0.730452	0.121564
	H37	H	0.056435	0.638727	0.783182
	H38	H	-0.017594	0.827370	1.045569
	H39	H	-0.109748	0.806276	0.216924
	H40	H	0.077878	0.731280	-0.043761
	N41	N	-0.007519	0.605733	0.926220
	N42	N	0.004161	0.895515	0.904361
	N43	N	-0.143228	0.742419	0.076071
	N44	N	0.146121	0.752943	0.095917
	C45	C	0.285884	0.752049	-0.087568
	C46	C	0.214568	0.746516	0.090104
	C47	C	0.283291	0.738243	0.103960
	C48	C	0.217184	0.760477	-0.101159
	C49	C	0.248322	0.735528	0.191239
	C50	C	0.252152	0.763190	-0.188439
	H51	H	0.253762	0.774223	-0.335729
	H52	H	0.246726	0.724593	0.338702
	H53	H	0.191234	0.769262	-0.178976
	H54	H	0.309256	0.729553	0.181942
	C55	C	0.322899	0.754611	-0.181630
	H56	H	0.321839	0.764633	-0.333448
	C57	C	0.177591	0.744249	0.184599
	H58	H	0.178655	0.734338	0.336580
	C59	C	0.712841	0.746768	-0.077778
	C60	C	0.788797	0.753320	0.074141
	C61	C	0.721059	0.765449	0.094213
	C62	C	0.780545	0.734433	-0.097220
	C63	C	0.758297	0.768655	0.168829
	C64	C	0.743314	0.731226	-0.171824
	H65	H	0.737427	0.716621	-0.304435
	H66	H	0.764183	0.783193	0.301634
	H67	H	0.803943	0.722389	-0.170267
	H68	H	0.697645	0.777433	0.167380
	C69	C	0.673450	0.743479	-0.159165
	H70	H	0.670109	0.728516	-0.294840
	C71	C	0.828244	0.756692	0.154814
	H72	H	0.831674	0.771580	0.290646
	C73	C	-0.004168	0.461700	0.079738
	C74	C	0.002827	0.537660	-0.072346
	C75	C	0.014497	0.469832	-0.092559
	C76	C	-0.016059	0.529495	0.099281
	C77	C	0.017918	0.507072	-0.167266
	C78	C	-0.019486	0.492259	0.173964
	H79	H	-0.034077	0.486439	0.306797
	H80	H	0.032450	0.512893	-0.300275
	H81	H	-0.027919	0.552964	0.172486
	H82	H	0.026308	0.446349	-0.165865
	C83	C	-0.007617	0.422306	0.161330
	H84	H	-0.022543	0.419007	0.297237
	C85	C	0.006466	0.577117	-0.152984
	H86	H	0.021295	0.580478	-0.289125
	C87	C	0.001387	0.035377	0.084573
	C88	C	-0.002875	-0.036071	-0.091704
	C89	C	-0.012284	0.032492	-0.106905
	C90	C	0.011022	-0.033152	0.099387
	C91	C	-0.014370	-0.002540	-0.193508
	C92	C	0.013116	0.001885	0.185989
	H93	H	0.024060	0.003732	0.333229
	H94	H	-0.025247	-0.004371	-0.340865
	H95	H	0.020209	-0.058926	0.177677
	H96	H	-0.021413	0.058273	-0.185323
	C97	C	0.003025	0.072429	0.178218
	H98	H	0.013113	0.071618	0.329857
	C99	C	-0.004701	-0.073132	-0.185223
	H100	H	-0.014754	-0.072299	-0.336931
	C101	C	0.497381	0.747422	0.502289
	C102	C	0.388826	0.746858	0.809619
	C103	C	0.504771	0.858019	0.171925
	C104	C	0.496340	0.638955	0.194612
	C105	C	0.608090	0.753899	0.830918
	C106	C	0.390887	0.733939	0.622162
	C107	C	0.535633	0.833305	0.188827
	C108	C	0.483366	0.641023	0.382020
	C109	C	0.583514	0.784883	0.815453
	C110	C	0.425398	0.734453	0.529538
	C111	C	0.532627	0.797748	0.285827
	C112	C	0.484000	0.675517	0.474662
	C113	C	0.547899	0.782149	0.719164
	C114	C	0.459832	0.747097	0.618533
	C115	C	0.498620	0.784826	0.369000
	C116	C	0.496829	0.709929	0.385730
	C117	C	0.534676	0.748244	0.636240
	C118	C	0.457737	0.758915	0.807490
	C119	C	0.467204	0.808729	0.339843
	C120	C	0.508655	0.707840	0.196726
	C121	C	0.558533	0.716742	0.663247
	C122	C	0.423202	0.758453	0.901525
	C123	C	0.469932	0.844190	0.242134
	C124	C	0.508075	0.673320	0.102688
	C125	C	0.594066	0.719206	0.760088
	H126	H	0.365503	0.722817	0.548167
	H127	H	0.562621	0.843006	0.131580
	H128	H	0.472135	0.615648	0.455962
	H129	H	0.593442	0.811805	0.872449
	H130	H	0.425742	0.724778	0.383564
	H131	H	0.557562	0.780026	0.302854
	H132	H	0.474305	0.675863	0.620660
	H133	H	0.530329	0.807206	0.702868
	H134	H	0.483310	0.769023	0.882752
	H135	H	0.440020	0.800276	0.398068
	H136	H	0.518885	0.733398	0.121475
	H137	H	0.549949	0.689671	0.604340
	H138	H	0.422559	0.767758	1.047885
	H139	H	0.444754	0.861474	0.222095
	H140	H	0.517421	0.672674	-0.043651
	H141	H	0.611265	0.693942	0.778719
	N142	N	0.354391	0.746029	0.907151
	N143	N	0.508882	0.894651	0.083079
	N144	N	0.495511	0.604507	0.097288
	N145	N	0.644818	0.757797	0.918584
	C146	C	-0.003821	0.245983	0.499108
	C147	C	-0.006554	0.138170	0.185281
	C148	C	0.106984	0.253118	0.826550
	C149	C	-0.111809	0.242846	0.812243
	C150	C	0.002649	0.356897	0.171338
	C151	C	-0.018122	0.139779	0.375490
	C152	C	0.082178	0.283920	0.811525
	C153	C	-0.110027	0.231187	0.622345
	C154	C	0.033631	0.332320	0.186534
	C155	C	-0.017041	0.174080	0.469896
	C156	C	0.046593	0.280982	0.715155
	C157	C	-0.075665	0.232346	0.528275
	C158	C	0.030910	0.296692	0.282979
	C159	C	-0.004301	0.208594	0.381711
	C160	C	0.033575	0.247015	0.632152
	C161	C	-0.041255	0.245263	0.616483
	C162	C	-0.003000	0.283411	0.365915
	C163	C	0.007632	0.206688	0.192795
	C164	C	0.057688	0.215697	0.658381
	C165	C	-0.043322	0.257214	0.805221
	C166	C	-0.034493	0.307285	0.339380
	C167	C	0.006559	0.172379	0.096843
	C168	C	0.093234	0.218383	0.754997
	C169	C	-0.077694	0.256064	0.900831
	C170	C	-0.032026	0.342868	0.242660
	H171	H	-0.029185	0.114313	0.449311
	H172	H	0.091847	0.310835	0.869529
	H173	H	-0.135417	0.220032	0.548496
	H174	H	0.060505	0.342210	0.128665
	H175	H	-0.026250	0.174175	0.616839
	H176	H	0.028773	0.305870	0.699882
	H177	H	-0.075449	0.223100	0.381484
	H178	H	0.055923	0.279051	0.298403
	H179	H	0.018214	0.232245	0.118840
	H180	H	0.049258	0.188609	0.599154
	H181	H	-0.017852	0.267893	0.879277
	H182	H	-0.061549	0.298645	0.398503
	H183	H	0.016198	0.171845	-0.049003
	H184	H	0.110640	0.193257	0.773120
	H185	H	-0.078359	0.265759	1.046470
	H186	H	-0.057274	0.360092	0.224382
	N187	N	-0.006242	0.103679	0.088863
	N188	N	0.143621	0.257250	0.914822
	N189	N	-0.146397	0.243239	0.908030
	N190	N	0.006573	0.393629	0.083463
	C191	C	0.497370	0.464637	-0.084547
	C192	C	0.501956	0.536004	0.092631
	C193	C	0.511266	0.467420	0.106615
	C194	C	0.488159	0.533242	-0.098707
	C195	C	0.513511	0.502406	0.193647
	C196	C	0.485900	0.498247	-0.185728
	H197	H	0.474996	0.496522	-0.333094
	H198	H	0.524535	0.504141	0.340803
	H199	H	0.479129	0.559098	-0.176767
	H200	H	0.520419	0.441591	0.184516
	C201	C	0.495802	0.427657	-0.178961
	H202	H	0.485901	0.428595	-0.330875
	C203	C	0.504196	0.573046	0.186333
	H204	H	0.514376	0.572087	0.337862
	C205	C	0.504649	1.038466	0.920576
	C206	C	0.498080	0.962747	1.076581
	C207	C	0.485829	1.030547	1.092612
	C208	C	0.516754	0.970642	0.904102
	C209	C	0.482613	0.993433	1.169211
	C210	C	0.519972	1.007761	0.827497
	H211	H	0.534468	1.013384	0.694225
	H212	H	0.468020	0.987799	1.302194
	H213	H	0.528697	0.947068	0.832043
	H214	H	0.473792	1.054103	1.164410
	C215	C	0.507814	1.077743	0.837048
	H216	H	0.522583	1.080880	0.700647
	C217	C	0.494615	0.923453	1.159522
	H218	H	0.479724	0.920361	1.295607
	C219	C	0.287374	0.253888	0.076375
	C220	C	0.211743	0.246871	-0.079457
	C221	C	0.279627	0.235118	-0.095790
	C222	C	0.219467	0.265479	0.093200
	C223	C	0.242553	0.231684	-0.172324
	C224	C	0.256541	0.268915	0.169727
	H225	H	0.262032	0.283368	0.303107
	H226	H	0.237050	0.217149	-0.305450
	H227	H	0.195796	0.277210	0.165428
	H228	H	0.303288	0.223308	-0.167767
	C229	C	0.326606	0.257338	0.159754
	H230	H	0.329593	0.272057	0.296235
	C231	C	0.172488	0.243270	-0.162370
	H232	H	0.169467	0.228385	-0.298361
	C233	C	0.713669	0.247971	0.085420
	C234	C	0.785337	0.251366	-0.089311
	C235	C	0.716950	0.261794	-0.105701
	C236	C	0.782084	0.237702	0.102087
	C237	C	0.752088	0.263461	-0.191531
	C238	C	0.746944	0.236033	0.187915
	H239	H	0.744833	0.225196	0.335293
	H240	H	0.754214	0.274395	-0.338738
	H241	H	0.807669	0.228272	0.181110
	H242	H	0.691383	0.271315	-0.184580
	C243	C	0.676525	0.246828	0.178391
	H244	H	0.677107	0.236937	0.330384
	C245	C	0.822517	0.252769	-0.181945
	H246	H	0.821932	0.262772	-0.333775
	C247	C	0.503008	0.254215	0.498175
	C248	C	0.392082	0.247263	0.171480
	C249	C	0.610897	0.257040	0.184228
	C250	C	0.497112	0.143136	0.825102
	C251	C	0.505579	0.361931	0.813075
	C252	C	0.416907	0.216472	0.185557
	C253	C	0.609163	0.268946	0.373709
	C254	C	0.466111	0.167703	0.811527
	C255	C	0.517152	0.360402	0.622845
	C256	C	0.452509	0.219333	0.281863
	C257	C	0.574809	0.267999	0.467843
	C258	C	0.468644	0.203364	0.715218
	C259	C	0.516182	0.326120	0.528246
	C260	C	0.465526	0.253213	0.365751
	C261	C	0.540343	0.255141	0.379955
	C262	C	0.502382	0.216700	0.630765
	C263	C	0.503498	0.291550	0.616108
	C264	C	0.441384	0.284526	0.340525
	C265	C	0.542404	0.242762	0.191991
	C266	C	0.533906	0.192825	0.655555
	C267	C	0.491603	0.293369	0.805126
	C268	C	0.405824	0.281917	0.244009
	C269	C	0.576755	0.243741	0.096231
	C270	C	0.531627	0.157210	0.752096
	C271	C	0.492595	0.327650	0.901324
	H272	H	0.407205	0.189597	0.127198
	H273	H	0.634620	0.279984	0.447425
	H274	H	0.439336	0.157748	0.870286
	H275	H	0.528024	0.385940	0.548925
	H276	H	0.470255	0.194392	0.297211
	H277	H	0.574677	0.277205	0.614731
	H278	H	0.443556	0.220908	0.700316
	H279	H	0.525213	0.326133	0.380962
	H280	H	0.449798	0.311553	0.400460
	H281	H	0.516930	0.231952	0.118491
	H282	H	0.560844	0.201496	0.595242
	H283	H	0.481097	0.267771	0.878984
	H284	H	0.388414	0.307052	0.226713
	H285	H	0.577391	0.233800	-0.048962
	H286	H	0.556915	0.140018	0.769044
	H287	H	0.482967	0.328107	1.047216
	N288	N	0.355456	0.243242	0.082945
	N289	N	0.645464	0.256430	0.088404
	N290	N	0.493412	0.106448	0.913657
	N291	N	0.505142	0.396374	0.909835
