data_Molecule from CHK

_cell_length_a		30.724483
_cell_length_b		30.725616
_cell_length_c		44.079464
_cell_angle_alpha	90.182284
_cell_angle_beta	89.866916
_cell_angle_gamma	91.108064
_symmetry_space_group_name_H-M	'P 1'
_symmetry_Int_Tables_number		1

loop_
	_symmetry_equiv_pos_as_xyz
	x,y,z

loop_
	_atom_site_label
	_atom_site_type_symbol
	_atom_site_fract_x
	_atom_site_fract_y
	_atom_site_fract_z
	C0	C	0.000097	0.749321	0.375324
	C1	C	0.000858	0.623137	0.424025
	C2	C	0.013872	0.861243	0.438725
	C3	C	-0.126113	0.750656	0.326598
	C4	C	0.111461	0.762587	0.311475
	C5	C	-0.035010	0.650637	0.425050
	C6	C	0.017404	0.866319	0.407210
	C7	C	-0.098962	0.714514	0.325762
	C8	C	0.116874	0.765916	0.342981
	C9	C	-0.034483	0.690208	0.409594
	C10	C	0.012962	0.830661	0.387693
	C11	C	-0.059411	0.714815	0.341269
	C12	C	0.081396	0.761562	0.362642
	C13	C	0.001482	0.704383	0.392283
	C14	C	0.005080	0.788244	0.398435
	C15	C	-0.044996	0.750759	0.358537
	C16	C	0.038829	0.753983	0.352066
	C17	C	0.036312	0.675684	0.390265
	C18	C	0.003362	0.783329	0.430033
	C19	C	-0.073234	0.786000	0.360210
	C20	C	0.033590	0.752381	0.320487
	C21	C	0.036074	0.636038	0.405695
	C22	C	0.007769	0.818838	0.449723
	C23	C	-0.112856	0.785981	0.344734
	C24	C	0.068917	0.756700	0.300653
	H25	H	-0.063579	0.640609	0.437907
	H26	H	0.023883	0.898510	0.398065
	H27	H	-0.109233	0.685932	0.312986
	H28	H	0.149176	0.772227	0.352010
	H29	H	-0.062725	0.710777	0.410734
	H30	H	0.015740	0.835563	0.363411
	H31	H	-0.039086	0.686387	0.340249
	H32	H	0.086545	0.764232	0.386909
	H33	H	0.064153	0.683929	0.376244
	H34	H	-0.000985	0.751271	0.439725
	H35	H	-0.064695	0.813958	0.374057
	H36	H	0.001413	0.748238	0.310925
	H37	H	0.063468	0.614484	0.403695
	H38	H	0.006446	0.814022	0.474067
	H39	H	-0.134094	0.813650	0.346524
	H40	H	0.063840	0.755523	0.276328
	N41	N	0.000725	0.582859	0.439101
	N42	N	0.018991	0.896591	0.458827
	N43	N	-0.166377	0.750748	0.311485
	N44	N	0.146561	0.767872	0.291221
	C45	C	0.287360	0.753537	0.230357
	C46	C	0.215200	0.745134	0.270278
	C47	C	0.284182	0.718921	0.251048
	C48	C	0.218488	0.779866	0.249689
	C49	C	0.248829	0.714777	0.270624
	C50	C	0.253835	0.784010	0.230116
	H51	H	0.255842	0.810997	0.214378
	H52	H	0.246865	0.687850	0.286414
	H53	H	0.192716	0.803485	0.249379
	H54	H	0.310008	0.695362	0.251396
	C55	C	0.324941	0.758081	0.209582
	H56	H	0.324885	0.786099	0.194142
	C57	C	0.177667	0.740769	0.291118
	H58	H	0.177655	0.712831	0.306623
	C59	C	0.711975	0.749838	0.232457
	C60	C	0.791111	0.749209	0.265411
	C61	C	0.752285	0.748396	0.217405
	C62	C	0.750810	0.750821	0.280464
	C63	C	0.791082	0.748077	0.233534
	C64	C	0.712005	0.751121	0.264332
	H65	H	0.681206	0.752353	0.276299
	H66	H	0.821881	0.746975	0.221557
	H67	H	0.750626	0.751803	0.305060
	H68	H	0.752488	0.747546	0.192807
	C69	C	0.670748	0.750395	0.215312
	H70	H	0.640647	0.751652	0.228777
	C71	C	0.832411	0.749159	0.282477
	H72	H	0.862453	0.748052	0.268930
	C73	C	-0.001206	0.461130	0.518010
	C74	C	-0.001341	0.540298	0.485126
	C75	C	-0.002671	0.501432	0.533092
	C76	C	0.000278	0.500006	0.470043
	C77	C	-0.002746	0.540244	0.516997
	C78	C	0.000339	0.461186	0.486141
	H79	H	0.001588	0.430394	0.474150
	H80	H	-0.003858	0.571037	0.528997
	H81	H	0.001464	0.499842	0.445451
	H82	H	-0.003720	0.501618	0.557687
	C83	C	-0.000830	0.419888	0.535119
	H84	H	0.000573	0.389804	0.521629
	C85	C	-0.001118	0.581616	0.468101
	H86	H	-0.002246	0.611643	0.481677
	C87	C	0.002203	1.037456	0.519445
	C88	C	-0.004756	0.965051	0.479581
	C89	C	-0.032370	1.033505	0.498747
	C90	C	0.029967	0.969137	0.500145
	C91	C	-0.035804	0.998039	0.479198
	C92	C	0.033407	1.004612	0.519692
	H93	H	0.060371	1.007225	0.535434
	H94	H	-0.062728	0.995467	0.463419
	H95	H	0.054120	0.943866	0.500472
	H96	H	-0.056495	1.058802	0.498385
	C97	C	0.005806	1.075090	0.540278
	H98	H	0.033874	1.075797	0.555693
	C99	C	-0.008528	0.927336	0.458837
	H100	H	-0.036631	0.926672	0.443448
	C101	C	0.501660	0.751018	0.124616
	C102	C	0.391069	0.736634	0.189005
	C103	C	0.501455	0.878701	0.077771
	C104	C	0.486485	0.639836	0.060736
	C105	C	0.629862	0.750241	0.170827
	C106	C	0.385328	0.733606	0.157514
	C107	C	0.536701	0.850528	0.075633
	C108	C	0.483455	0.634464	0.092252
	C109	C	0.601923	0.785664	0.173065
	C110	C	0.420555	0.738404	0.137685
	C111	C	0.536070	0.810560	0.090595
	C112	C	0.488431	0.669893	0.111907
	C113	C	0.561784	0.785209	0.158305
	C114	C	0.463181	0.746241	0.148065
	C115	C	0.500264	0.796237	0.108008
	C116	C	0.496445	0.712369	0.101321
	C117	C	0.546954	0.749321	0.141144
	C118	C	0.468799	0.747273	0.179623
	C119	C	0.465154	0.824607	0.109914
	C120	C	0.497380	0.717643	0.069738
	C121	C	0.575213	0.714147	0.138983
	C122	C	0.433711	0.742553	0.199629
	C123	C	0.465528	0.864681	0.095029
	C124	C	0.492490	0.682343	0.049903
	C125	C	0.615470	0.714354	0.153646
	H126	H	0.352986	0.727043	0.148632
	H127	H	0.565079	0.860555	0.062572
	H128	H	0.476798	0.602246	0.101295
	H129	H	0.612342	0.814101	0.185943
	H130	H	0.415169	0.735739	0.113443
	H131	H	0.564111	0.789781	0.088972
	H132	H	0.485828	0.664778	0.136176
	H133	H	0.541212	0.813400	0.159966
	H134	H	0.501079	0.751413	0.189019
	H135	H	0.437066	0.815871	0.123552
	H136	H	0.501618	0.749810	0.060197
	H137	H	0.566188	0.686082	0.125386
	H138	H	0.439058	0.743415	0.223930
	H139	H	0.437854	0.885906	0.096870
	H140	H	0.493333	0.687411	0.025576
	H141	H	0.636553	0.686587	0.151679
	N142	N	0.356127	0.731060	0.209376
	N143	N	0.500816	0.918491	0.062138
	N144	N	0.480952	0.604632	0.040542
	N145	N	0.669797	0.749418	0.186294
	C146	C	-0.000434	0.250617	0.625491
	C147	C	-0.017673	0.140618	0.560831
	C148	C	0.127589	0.250142	0.671948
	C149	C	-0.111154	0.232636	0.689400
	C150	C	-0.001276	0.378944	0.579552
	C151	C	-0.019095	0.134574	0.592339
	C152	C	0.099507	0.285449	0.674182
	C153	C	-0.116783	0.231190	0.657852
	C154	C	0.034276	0.351151	0.577443
	C155	C	-0.013537	0.169639	0.612239
	C156	C	0.059436	0.284901	0.659335
	C157	C	-0.081483	0.236921	0.638199
	C158	C	0.033853	0.310989	0.592140
	C159	C	-0.005409	0.212242	0.601942
	C160	C	0.044781	0.249004	0.642111
	C161	C	-0.039046	0.245250	0.648791
	C162	C	-0.002143	0.295966	0.609085
	C163	C	-0.004074	0.217915	0.570399
	C164	C	0.073177	0.213944	0.639950
	C165	C	-0.033776	0.246528	0.680373
	C166	C	-0.037442	0.324084	0.611133
	C167	C	-0.009664	0.183004	0.550314
	C168	C	0.113389	0.214258	0.654684
	C169	C	-0.068926	0.240771	0.700213
	C170	C	-0.037257	0.364381	0.596543
	H171	H	-0.025655	0.102218	0.601175
	H172	H	0.109712	0.313834	0.687195
	H173	H	-0.149003	0.224517	0.648788
	H174	H	0.062737	0.361647	0.564641
	H175	H	-0.015693	0.164116	0.636484
	H176	H	0.038683	0.312946	0.661104
	H177	H	-0.086699	0.234792	0.613915
	H178	H	0.062064	0.290447	0.590456
	H179	H	0.000888	0.250124	0.561075
	H180	H	0.064280	0.185891	0.626300
	H181	H	-0.001702	0.251608	0.689917
	H182	H	-0.065595	0.314891	0.624569
	H183	H	-0.008314	0.188362	0.526026
	H184	H	0.134582	0.186576	0.652712
	H185	H	-0.063884	0.242121	0.724538
	H186	H	-0.065124	0.385351	0.598414
	N187	N	-0.022004	0.105562	0.540421
	N188	N	0.167477	0.249455	0.687489
	N189	N	-0.146487	0.228307	0.709563
	N190	N	-0.002073	0.418900	0.564131
	C191	C	0.496206	0.463092	0.980321
	C192	C	0.503700	0.535582	1.020079
	C193	C	0.530614	0.466690	1.001177
	C194	C	0.469372	0.532067	0.999155
	C195	C	0.534310	0.502193	1.020669
	C196	C	0.465670	0.496547	0.979660
	H197	H	0.438988	0.494345	0.963663
	H198	H	0.561076	0.504449	1.036596
	H199	H	0.445700	0.557778	0.998549
	H200	H	0.554378	0.441062	1.001732
	C201	C	0.492512	0.425505	0.959446
	H202	H	0.464766	0.425167	0.943754
	C203	C	0.507909	0.573386	1.040708
	H204	H	0.535847	0.573608	1.056243
	C205	C	0.500106	1.039045	-0.017486
	C206	C	0.501037	0.960239	0.015806
	C207	C	0.501303	0.998577	-0.032371
	C208	C	0.500072	1.000717	0.030690
	C209	C	0.501764	0.959939	-0.016075
	C210	C	0.499607	1.039351	0.014396
	H211	H	0.498836	1.070280	0.026246
	H212	H	0.502642	0.929010	-0.027918
	H213	H	0.499663	1.001181	0.055292
	H214	H	0.501811	0.998125	-0.056972
	C215	C	0.499651	1.080150	-0.034752
	H216	H	0.498869	1.110352	-0.021349
	C217	C	0.501611	0.919172	0.033115
	H218	H	0.502395	0.888928	0.019763
	C219	C	0.288382	0.249593	0.766976
	C220	C	0.209448	0.250041	0.733764
	C221	C	0.247963	0.250838	0.781899
	C222	C	0.249877	0.249021	0.718840
	C223	C	0.209264	0.251064	0.765643
	C224	C	0.288574	0.248794	0.735095
	H225	H	0.319466	0.247982	0.723217
	H226	H	0.178375	0.251985	0.777518
	H227	H	0.250250	0.248388	0.694239
	H228	H	0.247596	0.251572	0.806498
	C229	C	0.329547	0.249375	0.784207
	H230	H	0.359709	0.248505	0.770782
	C231	C	0.168305	0.250408	0.716510
	H232	H	0.138131	0.251492	0.729908
	C233	C	0.712423	0.246408	0.769610
	C234	C	0.785208	0.252777	0.730086
	C235	C	0.716893	0.281021	0.749012
	C236	C	0.780834	0.218268	0.750777
	C237	C	0.752550	0.284168	0.729632
	C238	C	0.745177	0.215120	0.770157
	H239	H	0.742306	0.188271	0.785961
	H240	H	0.755483	0.311083	0.713888
	H241	H	0.805976	0.193989	0.751285
	H242	H	0.691810	0.305363	0.748558
	C243	C	0.674666	0.243153	0.790336
	H244	H	0.673732	0.215174	0.805812
	C245	C	0.823141	0.256231	0.709532
	H246	H	0.824066	0.284208	0.694053
	C247	C	0.498685	0.249245	0.874802
	C248	C	0.499635	0.120925	0.920777
	C249	C	0.515626	0.359546	0.939266
	C250	C	0.370419	0.249796	0.828678
	C251	C	0.609064	0.266874	0.810558
	C252	C	0.464072	0.148701	0.922895
	C253	C	0.517435	0.365413	0.907749
	C254	C	0.398409	0.214414	0.826457
	C255	C	0.614856	0.268541	0.842086
	C256	C	0.464477	0.188881	0.908220
	C257	C	0.512071	0.330241	0.887915
	C258	C	0.438577	0.214961	0.841174
	C259	C	0.579657	0.262951	0.861845
	C260	C	0.500444	0.203922	0.891252
	C261	C	0.503878	0.287682	0.898283
	C262	C	0.453391	0.250898	0.858293
	C263	C	0.537173	0.254490	0.851386
	C264	C	0.535771	0.175833	0.889221
	C265	C	0.501890	0.282228	0.929828
	C266	C	0.425101	0.286051	0.860421
	C267	C	0.531738	0.253006	0.819822
	C268	C	0.535618	0.135530	0.903807
	C269	C	0.507326	0.317240	0.949846
	C270	C	0.384808	0.285755	0.845791
	C271	C	0.566780	0.258659	0.799876
	H272	H	0.435574	0.138121	0.935624
	H273	H	0.524002	0.397732	0.898850
	H274	H	0.388006	0.185928	0.813624
	H275	H	0.647145	0.275150	0.851051
	H276	H	0.436168	0.209305	0.909796
	H277	H	0.514280	0.335672	0.863662
	H278	H	0.459170	0.186784	0.839522
	H279	H	0.585036	0.265052	0.886113
	H280	H	0.563923	0.185048	0.875791
	H281	H	0.496639	0.250097	0.939212
	H282	H	0.434153	0.314161	0.873967
	H283	H	0.499619	0.247836	0.810373
	H284	H	0.563506	0.114588	0.901941
	H285	H	0.505581	0.312028	0.974139
	H286	H	0.363699	0.313505	0.847740
	H287	H	0.561609	0.257148	0.775569
	N288	N	0.500420	0.080973	0.936223
	N289	N	0.519890	0.394651	0.959629
	N290	N	0.330448	0.250425	0.813227
	N291	N	0.644290	0.271072	0.790293
