data_Molecule from CHK

_cell_length_a		31.113461
_cell_length_b		30.889713
_cell_length_c		44.179036
_cell_angle_alpha	90.846609
_cell_angle_beta	91.171043
_cell_angle_gamma	89.891837
_symmetry_space_group_name_H-M	'P 1'
_symmetry_Int_Tables_number		1

loop_
	_symmetry_equiv_pos_as_xyz
	x,y,z

loop_
	_atom_site_label
	_atom_site_type_symbol
	_atom_site_fract_x
	_atom_site_fract_y
	_atom_site_fract_z
	C0	C	-0.002544	0.740076	0.373879
	C1	C	-0.016579	0.623943	0.431120
	C2	C	0.004573	0.862156	0.428310
	C3	C	-0.117111	0.739546	0.311863
	C4	C	0.118730	0.736493	0.322085
	C5	C	-0.051189	0.651535	0.424466
	C6	C	0.017491	0.859762	0.398127
	C7	C	-0.092876	0.702106	0.317693
	C8	C	0.118009	0.746283	0.353189
	C9	C	-0.046037	0.688172	0.406791
	C10	C	0.014616	0.821233	0.381356
	C11	C	-0.056997	0.702832	0.337145
	C12	C	0.079760	0.746894	0.369124
	C13	C	-0.006387	0.698999	0.394322
	C14	C	-0.000376	0.782689	0.393842
	C15	C	-0.043227	0.740847	0.352132
	C16	C	0.039844	0.738122	0.355013
	C17	C	0.027629	0.670239	0.400032
	C18	C	-0.011932	0.784950	0.424324
	C19	C	-0.068029	0.777970	0.346806
	C20	C	0.040549	0.729424	0.323811
	C21	C	0.022840	0.633697	0.417918
	C22	C	-0.009476	0.823527	0.441224
	C23	C	-0.104033	0.777510	0.327341
	C24	C	0.078744	0.728722	0.307680
	H25	H	-0.082371	0.643960	0.433526
	H26	H	0.029520	0.888854	0.387807
	H27	H	-0.102686	0.672040	0.306626
	H28	H	0.148231	0.753451	0.364850
	H29	H	-0.073541	0.708839	0.402225
	H30	H	0.024363	0.820864	0.357933
	H31	H	-0.039188	0.673162	0.341045
	H32	H	0.080644	0.754638	0.393146
	H33	H	0.058543	0.675830	0.390085
	H34	H	-0.022583	0.756003	0.435385
	H35	H	-0.059475	0.808045	0.358210
	H36	H	0.010688	0.723668	0.311476
	H37	H	0.049912	0.611979	0.421010
	H38	H	-0.017732	0.823240	0.464924
	H39	H	-0.121517	0.807496	0.324416
	H40	H	0.076569	0.722542	0.283537
	N41	N	-0.023053	0.586615	0.448250
	N42	N	0.009296	0.901294	0.444567
	N43	N	-0.153281	0.735819	0.292578
	N44	N	0.158205	0.738256	0.307410
	C45	C	0.287037	0.741001	0.237768
	C46	C	0.206386	0.731237	0.265636
	C47	C	0.251492	0.723915	0.221546
	C48	C	0.242068	0.747824	0.281964
	C49	C	0.211967	0.719094	0.235185
	C50	C	0.281614	0.752594	0.268335
	H51	H	0.308721	0.765669	0.281232
	H52	H	0.184858	0.706059	0.222269
	H53	H	0.238028	0.757107	0.305505
	H54	H	0.255501	0.714708	0.197987
	C55	C	0.328863	0.746965	0.223081
	H56	H	0.354512	0.760829	0.237581
	C57	C	0.164042	0.726975	0.279913
	H58	H	0.138451	0.713408	0.265245
	C59	C	0.710940	0.746775	0.226359
	C60	C	0.783052	0.759659	0.265755
	C61	C	0.718763	0.787202	0.240369
	C62	C	0.775121	0.719180	0.251852
	C63	C	0.754103	0.793557	0.259661
	C64	C	0.739814	0.712841	0.232525
	H65	H	0.734223	0.681394	0.222005
	H66	H	0.759625	0.824972	0.270249
	H67	H	0.797264	0.692845	0.256523
	H68	H	0.696553	0.813510	0.235773
	C69	C	0.673238	0.739946	0.205916
	H70	H	0.670041	0.707250	0.196148
	C71	C	0.820529	0.766396	0.286426
	H72	H	0.823787	0.799181	0.296005
	C73	C	-0.010425	0.455091	0.516955
	C74	C	-0.000402	0.532726	0.484336
	C75	C	0.025383	0.482028	0.522197
	C76	C	-0.036265	0.505851	0.479133
	C77	C	0.030395	0.519986	0.506162
	C78	C	-0.041139	0.467726	0.495041
	H79	H	-0.068940	0.447328	0.490683
	H80	H	0.058289	0.540281	0.510459
	H81	H	-0.060084	0.515442	0.462254
	H82	H	0.049287	0.472433	0.539016
	C83	C	-0.015211	0.414344	0.533714
	H84	H	-0.043009	0.394180	0.527214
	C85	C	0.005384	0.572840	0.467069
	H86	H	0.035508	0.590503	0.471589
	C87	C	0.001944	1.032515	0.515874
	C88	C	-0.010392	0.954292	0.482406
	C89	C	-0.034824	1.006992	0.519723
	C90	C	0.026144	0.980063	0.478320
	C91	C	-0.040838	0.968588	0.503400
	C92	C	0.032289	1.018316	0.494779
	H93	H	0.060744	1.037689	0.491408
	H94	H	-0.069321	0.949243	0.506728
	H95	H	0.049707	0.969308	0.462079
	H96	H	-0.058425	1.017828	0.535911
	C97	C	0.008712	1.073038	0.533530
	H98	H	0.039209	1.089860	0.529924
	C99	C	-0.016702	0.913440	0.465036
	H100	H	-0.045286	0.894491	0.470461
	C101	C	0.489672	0.760594	0.125297
	C102	C	0.372595	0.743408	0.179848
	C103	C	0.488135	0.886587	0.078119
	C104	C	0.487879	0.650196	0.059687
	C105	C	0.609984	0.766087	0.181381
	C106	C	0.371557	0.742061	0.148088
	C107	C	0.523441	0.858267	0.077006
	C108	C	0.486108	0.644073	0.091073
	C109	C	0.578405	0.798525	0.182528
	C110	C	0.408693	0.747447	0.131405
	C111	C	0.523315	0.819066	0.092310
	C112	C	0.486720	0.679258	0.111293
	C113	C	0.540936	0.796172	0.164706
	C114	C	0.449064	0.754250	0.145356
	C115	C	0.487972	0.805493	0.108955
	C116	C	0.489304	0.722181	0.101519
	C117	C	0.532248	0.760983	0.145116
	C118	C	0.450385	0.752946	0.177061
	C119	C	0.453138	0.834237	0.110358
	C120	C	0.488568	0.728047	0.070107
	C121	C	0.564172	0.729000	0.143620
	C122	C	0.413287	0.747697	0.193952
	C123	C	0.453108	0.873638	0.095260
	C124	C	0.487770	0.693071	0.049736
	C125	C	0.601799	0.731074	0.161432
	H126	H	0.340844	0.737085	0.136523
	H127	H	0.551824	0.867380	0.064830
	H128	H	0.483193	0.611668	0.099830
	H129	H	0.583878	0.826134	0.197554
	H130	H	0.406559	0.746404	0.106883
	H131	H	0.551317	0.798166	0.091508
	H132	H	0.484689	0.673661	0.135392
	H133	H	0.517650	0.822270	0.165852
	H134	H	0.480956	0.755674	0.189022
	H135	H	0.425582	0.826279	0.123708
	H136	H	0.487986	0.760393	0.061091
	H137	H	0.560218	0.702072	0.127910
	H138	H	0.416684	0.746340	0.218345
	H139	H	0.425522	0.895048	0.096571
	H140	H	0.487226	0.698680	0.025556
	H141	H	0.625197	0.705402	0.158865
	N142	N	0.333974	0.737864	0.195121
	N143	N	0.485800	0.925539	0.062168
	N144	N	0.486384	0.616228	0.038245
	N145	N	0.646132	0.770073	0.200670
	C146	C	0.002751	0.245450	0.625352
	C147	C	-0.012761	0.125486	0.569337
	C148	C	0.126224	0.246515	0.678141
	C149	C	-0.110291	0.244066	0.685445
	C150	C	0.008652	0.364826	0.570624
	C151	C	0.027477	0.137222	0.581838
	C152	C	0.087187	0.236872	0.691976
	C153	C	-0.097465	0.282359	0.671432
	C154	C	-0.006832	0.325845	0.557822
	C155	C	0.032714	0.174962	0.599344
	C156	C	0.048281	0.236493	0.675573
	C157	C	-0.062009	0.283129	0.652488
	C158	C	-0.008860	0.288093	0.574812
	C159	C	-0.001441	0.203486	0.604831
	C160	C	0.046032	0.244653	0.644470
	C161	C	-0.036915	0.246265	0.646899
	C162	C	0.003426	0.287313	0.605502
	C163	C	-0.041477	0.191657	0.592038
	C164	C	0.085167	0.253874	0.630727
	C165	C	-0.049653	0.208249	0.661188
	C166	C	0.018447	0.326534	0.618172
	C167	C	-0.047064	0.153863	0.574716
	C168	C	0.124113	0.254401	0.646944
	C169	C	-0.084979	0.207201	0.680075
	C170	C	0.020966	0.364230	0.601314
	H171	H	0.054789	0.115860	0.578936
	H172	H	0.086310	0.229607	0.715826
	H173	H	-0.115078	0.312189	0.674861
	H174	H	-0.016027	0.324409	0.534048
	H175	H	0.064101	0.181648	0.609245
	H176	H	0.019145	0.229735	0.687547
	H177	H	-0.054067	0.313227	0.641746
	H178	H	-0.020002	0.258663	0.563697
	H179	H	-0.068913	0.212502	0.596039
	H180	H	0.084891	0.260898	0.606752
	H181	H	-0.031352	0.178851	0.657318
	H182	H	0.028590	0.327332	0.641796
	H183	H	-0.078480	0.145692	0.565232
	H184	H	0.153738	0.261518	0.635509
	H185	H	-0.093754	0.177226	0.690818
	H186	H	0.032815	0.393938	0.611841
	N187	N	-0.019528	0.088024	0.551495
	N188	N	0.166681	0.246817	0.692714
	N189	N	-0.144646	0.240350	0.705222
	N190	N	0.011237	0.403745	0.554818
	C191	C	0.497853	0.476213	0.976161
	C192	C	0.501842	0.544059	1.020055
	C193	C	0.522139	0.471776	1.003107
	C194	C	0.477805	0.548610	0.993012
	C195	C	0.524033	0.504970	1.024669
	C196	C	0.475730	0.515334	0.971522
	H197	H	0.456975	0.519377	0.950819
	H198	H	0.542891	0.500979	1.045331
	H199	H	0.460699	0.578747	0.989276
	H200	H	0.539366	0.441694	1.006784
	C201	C	0.495643	0.440830	0.953298
	H202	H	0.474820	0.446683	0.933412
	C203	C	0.504146	0.579530	1.042843
	H204	H	0.522867	0.572838	1.063593
	C205	C	0.496313	1.050031	-0.012140
	C206	C	0.500164	0.970983	0.019609
	C207	C	0.514907	1.012878	-0.025153
	C208	C	0.481665	1.008163	0.032653
	C209	C	0.516879	0.974139	-0.009588
	C210	C	0.479837	1.046946	0.017132
	H211	H	0.465458	1.075310	0.027535
	H212	H	0.531323	0.945792	-0.019968
	H213	H	0.468810	1.005956	0.055210
	H214	H	0.527809	1.015096	-0.047695
	C215	C	0.494558	1.091351	-0.028551
	H216	H	0.480505	1.118911	-0.016253
	C217	C	0.502309	0.929772	0.036130
	H218	H	0.518051	0.902691	0.024358
	C219	C	0.300284	0.246154	0.761815
	C220	C	0.216723	0.243543	0.734968
	C221	C	0.263741	0.240829	0.779541
	C222	C	0.253253	0.248930	0.717239
	C223	C	0.222791	0.239541	0.766412
	C224	C	0.294222	0.250208	0.730375
	H225	H	0.322028	0.254426	0.716353
	H226	H	0.194991	0.235461	0.780461
	H227	H	0.248788	0.252129	0.692966
	H228	H	0.268160	0.237771	0.803828
	C229	C	0.343815	0.247991	0.775893
	H230	H	0.370189	0.252384	0.760167
	C231	C	0.173031	0.242694	0.721135
	H232	H	0.146849	0.238878	0.737102
	C233	C	0.724904	0.248659	0.772926
	C234	C	0.793082	0.262998	0.732639
	C235	C	0.729933	0.288873	0.758991
	C236	C	0.788224	0.222894	0.746758
	C237	C	0.763353	0.295939	0.739248
	C238	C	0.754849	0.215841	0.766501
	H239	H	0.751588	0.184656	0.777120
	H240	H	0.766700	0.327132	0.728657
	H241	H	0.811130	0.197359	0.741859
	H242	H	0.707034	0.314388	0.763949
	C243	C	0.689293	0.240816	0.793821
	H244	H	0.688612	0.208299	0.803392
	C245	C	0.828568	0.270268	0.711515
	H246	H	0.829684	0.302561	0.701623
	C247	C	0.510080	0.254621	0.875378
	C248	C	0.507523	0.133948	0.928894
	C249	C	0.514468	0.371164	0.935548
	C250	C	0.389506	0.246481	0.819658
	C251	C	0.626656	0.264337	0.819135
	C252	C	0.514856	0.174302	0.943103
	C253	C	0.476826	0.360206	0.919109
	C254	C	0.428871	0.256586	0.806428
	C255	C	0.617270	0.226147	0.834568
	C256	C	0.515629	0.212448	0.926526
	C257	C	0.475224	0.323971	0.899810
	C258	C	0.467003	0.259109	0.823677
	C259	C	0.580907	0.222880	0.852456
	C260	C	0.510237	0.212434	0.894945
	C261	C	0.510556	0.296258	0.896313
	C262	C	0.468012	0.252741	0.855022
	C263	C	0.551316	0.256843	0.855444
	C264	C	0.503066	0.171956	0.880920
	C265	C	0.548036	0.307437	0.912806
	C266	C	0.428632	0.242582	0.868072
	C267	C	0.561137	0.295076	0.840318
	C268	C	0.502421	0.133688	0.897292
	C269	C	0.549855	0.343467	0.932201
	C270	C	0.390473	0.239995	0.851037
	C271	C	0.597401	0.298636	0.822463
	H272	H	0.520457	0.176171	0.967365
	H273	H	0.448061	0.379602	0.921670
	H274	H	0.430578	0.262355	0.782397
	H275	H	0.638360	0.198349	0.833265
	H276	H	0.520240	0.242725	0.938734
	H277	H	0.445654	0.317400	0.887317
	H278	H	0.496558	0.265822	0.812191
	H279	H	0.575907	0.193057	0.864387
	H280	H	0.497886	0.170671	0.856581
	H281	H	0.576259	0.287142	0.910375
	H282	H	0.428088	0.236586	0.892176
	H283	H	0.539680	0.322555	0.842683
	H284	H	0.497195	0.102910	0.885691
	H285	H	0.579200	0.350870	0.944882
	H286	H	0.360580	0.232382	0.861972
	H287	H	0.603707	0.328590	0.810860
	N288	N	0.507917	0.094611	0.944423
	N289	N	0.517169	0.405869	0.956359
	N290	N	0.349620	0.244614	0.804410
	N291	N	0.661399	0.269827	0.799834
