data_Molecule from CHK

_cell_length_a		21.308551
_cell_length_b		21.308811
_cell_length_c		5.891407
_cell_angle_alpha	89.451530
_cell_angle_beta	89.450723
_cell_angle_gamma	89.659503
_symmetry_space_group_name_H-M	'P 1'
_symmetry_Int_Tables_number		1

loop_
	_symmetry_equiv_pos_as_xyz
	x,y,z

loop_
	_atom_site_label
	_atom_site_type_symbol
	_atom_site_fract_x
	_atom_site_fract_y
	_atom_site_fract_z
	C0	C	-0.207608	0.763788	0.287413
	C1	C	-0.013442	0.545980	1.713164
	C2	C	-0.013884	0.957639	1.712555
	C3	C	0.203976	0.763661	0.286720
	C4	C	-0.186650	0.706681	0.376045
	C5	C	-0.065744	0.561508	1.582528
	C6	C	0.043228	0.936756	1.623758
	C7	C	0.188477	0.815944	0.417493
	C8	C	-0.146132	0.703965	0.564489
	C9	C	-0.061611	0.601086	1.389669
	C10	C	0.045948	0.896180	1.435499
	C11	C	0.148911	0.811780	0.610390
	C12	C	-0.123169	0.756572	0.676584
	C13	C	-0.005906	0.629639	1.315939
	C14	C	-0.006658	0.873158	1.323544
	C15	C	0.120359	0.756059	0.683996
	C16	C	-0.151953	0.812337	0.603369
	C17	C	0.046630	0.605818	1.429505
	C18	C	-0.062442	0.901887	1.396877
	C19	C	0.144181	0.703545	0.570321
	C20	C	-0.191706	0.816368	0.413806
	C21	C	0.043798	0.565452	1.621388
	C22	C	-0.066479	0.941665	1.586374
	C23	C	0.184542	0.706408	0.378447
	H24	H	-0.202079	0.663282	0.303403
	H25	H	-0.110815	0.542876	1.634350
	H26	H	0.086611	0.952312	1.696179
	H27	H	0.207102	0.861014	0.365628
	H28	H	-0.133164	0.658727	0.633488
	H29	H	-0.103759	0.609702	1.293263
	H30	H	0.091187	0.883245	1.366430
	H31	H	0.140267	0.853916	0.706839
	H32	H	-0.143420	0.854528	0.697965
	H33	H	0.091922	0.617305	1.356964
	H34	H	-0.104640	0.893292	1.302398
	H35	H	0.132707	0.658244	0.642797
	H36	H	-0.210921	0.861360	0.362794
	H37	H	0.087193	0.549614	1.695647
	H38	H	-0.111475	0.960847	1.637516
	H39	H	0.200419	0.663035	0.304121
	N40	N	-0.245652	0.773543	0.074775
	N41	N	-0.023281	0.506288	1.924711
	N42	N	-0.023529	0.995988	1.924471
	N43	N	0.243644	0.773477	0.075148
	O44	O	-0.265004	0.828979	0.036885
	O45	O	-0.078787	1.016022	1.961153
	O46	O	0.264531	0.828377	0.041872
	O47	O	-0.078549	0.486701	1.960617
	C48	C	-0.004276	0.815093	1.153952
	C49	C	0.056544	0.812978	1.006006
	C50	C	0.061041	0.753895	0.852154
	H51	H	0.057316	0.855752	0.905091
	H52	H	0.098062	0.813187	1.111913
	C53	C	0.057360	0.692712	0.999964
	C54	C	-0.003810	0.688963	1.147816
	H55	H	0.059067	0.651203	0.894642
	H56	H	0.098875	0.691037	1.105252
	C57	C	-0.004156	0.751263	1.281052
	H58	H	-0.047128	0.750718	1.380279
	H59	H	0.039529	0.750477	1.374402
	C60	C	-0.063020	0.812975	1.000053
	C61	C	-0.001267	0.754179	0.718965
	C62	C	-0.065092	0.754234	0.846123
	H63	H	-0.000771	0.797148	0.619729
	H64	H	-0.000445	0.710491	0.625627
	C65	C	-0.062906	0.693407	0.993999
	H66	H	-0.105763	0.812805	1.102014
	H67	H	-0.062888	0.855723	0.898117
	H68	H	-0.105678	0.692582	1.094915
	H69	H	-0.063076	0.651894	0.888060
	C70	C	0.294664	0.737610	1.713206
	C71	C	0.706290	0.737369	1.712660
	C72	C	0.512224	0.955166	0.286712
	C73	C	0.512608	0.543613	0.287365
	C74	C	0.310199	0.685316	1.582547
	C75	C	0.685340	0.794479	1.624034
	C76	C	0.564512	0.939648	0.417441
	C77	C	0.455487	0.564539	0.375984
	C78	C	0.349785	0.689468	1.389702
	C79	C	0.644823	0.797204	1.435593
	C80	C	0.560354	0.900108	0.610394
	C81	C	0.452742	0.605058	0.564423
	C82	C	0.378270	0.745195	1.315818
	C83	C	0.621842	0.744604	1.323509
	C84	C	0.504628	0.871636	0.684335
	C85	C	0.505333	0.628058	0.676514
	C86	C	0.354510	0.797705	1.429689
	C87	C	0.650617	0.688833	1.396715
	C88	C	0.452117	0.895389	0.570444
	C89	C	0.561117	0.599305	0.603317
	C90	C	0.314111	0.794855	1.621458
	C91	C	0.690374	0.684793	1.586269
	C92	C	0.454974	0.935717	0.378458
	C93	C	0.565176	0.559550	0.413763
	H94	H	0.291556	0.640249	1.634359
	H95	H	0.700773	0.837876	1.696677
	H96	H	0.609593	0.958253	0.365607
	H97	H	0.412100	0.549085	0.303330
	H98	H	0.358420	0.647329	1.293266
	H99	H	0.631864	0.842444	1.366588
	H100	H	0.602494	0.891492	0.706844
	H101	H	0.407496	0.618002	0.633418
	H102	H	0.365995	0.843003	1.357212
	H103	H	0.642072	0.646645	1.302114
	H104	H	0.406817	0.883910	0.642934
	H105	H	0.603301	0.607866	0.697919
	H106	H	0.298210	0.838230	1.695718
	H107	H	0.709573	0.639794	1.637287
	H108	H	0.411589	0.951525	0.304048
	H109	H	0.610184	0.540368	0.362750
	N110	N	0.254696	0.727869	1.924082
	N111	N	0.744339	0.727612	1.925288
	N112	N	0.522098	0.994805	0.075054
	N113	N	0.522387	0.505569	0.074738
	O114	O	0.234437	0.672788	1.958707
	O115	O	0.577386	1.014329	0.039097
	O116	O	0.577828	0.486227	0.036888
	O117	O	0.763708	0.672181	1.963152
	C118	C	0.502517	0.812261	0.852254
	C119	C	0.502851	0.749969	0.718974
	C120	C	0.502950	0.686131	0.846073
	H121	H	0.459162	0.750771	0.625640
	H122	H	0.545821	0.750508	0.619742
	C123	C	0.561685	0.688232	1.000009
	C124	C	0.563765	0.746962	1.153968
	H125	H	0.561546	0.645482	1.101930
	H126	H	0.604432	0.688396	0.898067
	C127	C	0.561602	0.807793	1.006114
	H128	H	0.561776	0.849301	1.112075
	H129	H	0.604379	0.808614	0.905227
	C130	C	0.441339	0.808517	1.000053
	C131	C	0.442120	0.688260	0.993952
	C132	C	0.437634	0.747334	1.147853
	H133	H	0.400610	0.688080	0.888002
	H134	H	0.441319	0.645479	1.094812
	C135	C	0.499931	0.747032	1.281095
	H136	H	0.439627	0.850023	1.105376
	H137	H	0.399830	0.810201	0.894725
	H138	H	0.499114	0.790723	1.374417
	H139	H	0.499419	0.704066	1.380338
	C140	C	0.012334	0.456452	0.289414
	C141	C	0.012760	0.044810	0.284648
	C142	C	-0.206271	0.237825	1.710666
	C143	C	0.205215	0.237232	1.715448
	C144	C	0.064784	0.439827	0.417525
	C145	C	-0.044435	0.064576	0.376147
	C146	C	-0.189677	0.185392	1.582409
	C147	C	0.185506	0.294443	1.623925
	C148	C	0.060633	0.400058	0.609855
	C149	C	-0.047211	0.105041	0.564741
	C150	C	-0.149953	0.189554	1.389963
	C151	C	0.145103	0.297249	1.435155
	C152	C	0.004850	0.371797	0.684350
	C153	C	0.005385	0.128182	0.676448
	C154	C	-0.121693	0.245334	1.315471
	C155	C	0.121946	0.244669	1.323397
	C156	C	-0.047651	0.395516	0.570361
	C157	C	0.061162	0.099429	0.603145
	C158	C	-0.145398	0.297830	1.429531
	C159	C	0.150672	0.188876	1.396685
	C160	C	-0.044830	0.435940	0.378648
	C161	C	0.065214	0.059818	0.413190
	C162	C	-0.185746	0.294994	1.621476
	C163	C	0.190230	0.184796	1.586781
	H164	H	0.109922	0.458176	0.365098
	H165	H	-0.087788	0.048720	0.304324
	H166	H	-0.207995	0.140240	1.634813
	H167	H	0.201339	0.337782	1.695892
	H168	H	0.102863	0.391062	0.705328
	H169	H	-0.092458	0.117595	0.634776
	H170	H	-0.140982	0.147327	1.294439
	H171	H	0.132574	0.342506	1.365138
	H172	H	-0.092948	0.383813	0.642321
	H173	H	0.103291	0.107730	0.698391
	H174	H	-0.133689	0.343130	1.357603
	H175	H	0.142353	0.146751	1.301435
	H176	H	-0.088236	0.451531	0.303826
	H177	H	0.110166	0.040448	0.362508
	H178	H	-0.201224	0.338407	1.696521
	H179	H	0.209546	0.139830	1.637581
	N180	N	0.022291	0.495343	0.076007
	N181	N	0.022312	0.005645	0.074672
	N182	N	-0.244809	0.227730	1.924890
	N183	N	0.244036	0.227588	1.926216
	O184	O	0.077572	0.514875	0.039830
	O185	O	-0.263520	0.172233	1.962513
	O186	O	0.264707	0.172493	1.961267
	O187	O	0.077568	-0.014423	0.038279
	C188	C	-0.062287	0.247490	1.147669
	C189	C	-0.000003	0.247138	1.281017
	C190	C	0.063846	0.247073	1.153943
	H191	H	-0.000810	0.290829	1.374345
	H192	H	-0.000553	0.204168	1.380241
	C193	C	0.061727	0.188357	0.999943
	C194	C	0.003013	0.186276	0.845923
	H195	H	0.104456	0.188466	0.897994
	H196	H	0.061579	0.145628	1.101903
	C197	C	-0.057842	0.188448	0.993622
	H198	H	-0.099338	0.188350	0.887533
	H199	H	-0.058726	0.145638	1.094320
	C200	C	-0.058536	0.308689	0.999940
	C201	C	0.061702	0.307933	1.006259
	C202	C	0.002666	0.312403	0.852190
	H203	H	0.061804	0.349425	1.112369
	H204	H	0.104514	0.308807	0.905584
	C205	C	0.002983	0.250121	0.718856
	H206	H	-0.100042	0.310390	0.894608
	H207	H	-0.060207	0.350195	1.105291
	H208	H	-0.040710	0.250948	0.625536
	H209	H	0.045952	0.250644	0.619620
	C210	C	0.486250	0.457496	1.712603
	C211	C	0.705233	0.263313	0.289523
	C212	C	0.292508	0.263879	0.287382
	C213	C	0.486459	0.044805	1.710582
	C214	C	0.543368	0.436560	1.623995
	C215	C	0.688710	0.315736	0.417956
	C216	C	0.313328	0.206751	0.376222
	C217	C	0.434048	0.061319	1.582080
	C218	C	0.546110	0.396036	1.435563
	C219	C	0.648988	0.311577	0.610415
	C220	C	0.353895	0.203999	0.564509
	C221	C	0.438235	0.101033	1.389597
	C222	C	0.493516	0.373025	1.323525
	C223	C	0.620566	0.255835	0.684412
	C224	C	0.376976	0.256585	0.676406
	C225	C	0.493998	0.129439	1.315674
	C226	C	0.437742	0.401812	1.396635
	C227	C	0.644295	0.203326	0.570500
	C228	C	0.348260	0.312382	0.603159
	C229	C	0.546489	0.105695	1.429645
	C230	C	0.433686	0.441577	1.586161
	C231	C	0.684672	0.206148	0.378633
	C232	C	0.308489	0.316453	0.413650
	C233	C	0.543637	0.065318	1.621481
	H234	H	0.586757	0.452025	1.696625
	H235	H	0.707093	0.360876	0.365715
	H236	H	0.297725	0.163384	0.303803
	H237	H	0.388907	0.042957	1.634409
	H238	H	0.591351	0.383103	1.366485
	H239	H	0.640092	0.353781	0.706159
	H240	H	0.366773	0.158755	0.633689
	H241	H	0.396038	0.109973	1.293858
	H242	H	0.395568	0.393277	1.301952
	H243	H	0.632559	0.158031	0.642400
	H244	H	0.356857	0.354560	0.697743
	H245	H	0.591792	0.117408	1.357774
	H246	H	0.388685	0.460788	1.637106
	H247	H	0.700143	0.162731	0.303596
	H248	H	0.289320	0.361459	0.362570
	H249	H	0.587035	0.049789	1.696522
	N250	N	0.476467	0.495541	1.925228
	N251	N	0.743765	0.273409	0.075289
	N252	N	0.254196	0.273559	0.075395
	N253	N	0.476393	0.006272	1.924784
	O254	O	0.421020	0.514872	1.963086
	O255	O	0.234200	0.328829	0.038702
	O256	O	0.421262	-0.013826	1.959692
	O257	O	0.762465	0.328909	0.037643
	C258	C	0.435052	0.254168	0.845962
	C259	C	0.437155	0.193316	0.993727
	C260	C	0.496201	0.188810	1.147737
	H261	H	0.394347	0.192516	1.094464
	H262	H	0.437001	0.151809	0.887707
	C263	C	0.557412	0.192508	1.000040
	C264	C	0.561185	0.253705	0.852315
	H265	H	0.598914	0.190802	1.105401
	H266	H	0.559079	0.151002	0.894703
	C267	C	0.498904	0.254067	0.718952
	H268	H	0.499462	0.297034	0.619714
	H269	H	0.499698	0.210377	0.625622
	C270	C	0.437163	0.312887	0.999969
	C271	C	0.495908	0.251097	1.281062
	C272	C	0.495880	0.314941	1.154007
	H273	H	0.452942	0.250589	1.380309
	H274	H	0.539601	0.250260	1.374380
	C275	C	0.556739	0.312763	1.006300
	H276	H	0.437351	0.355641	0.898073
	H277	H	0.394402	0.312746	1.101836
	H278	H	0.557598	0.355567	0.905565
	H279	H	0.598245	0.312871	1.112342
