data_Molecule from CHK

_cell_length_a		30.757791
_cell_length_b		30.755875
_cell_length_c		6.270948
_cell_angle_alpha	89.270561
_cell_angle_beta	90.731274
_cell_angle_gamma	107.904234
_symmetry_space_group_name_H-M	'P 1'
_symmetry_Int_Tables_number		1

loop_
	_symmetry_equiv_pos_as_xyz
	x,y,z

loop_
	_atom_site_label
	_atom_site_type_symbol
	_atom_site_fract_x
	_atom_site_fract_y
	_atom_site_fract_z
	C0	C	0.008731	0.759125	0.126210
	C1	C	-0.015715	0.637169	0.558828
	C2	C	0.021342	0.879118	0.536274
	C3	C	-0.113301	0.734743	-0.305797
	C4	C	0.128534	0.771454	-0.284706
	C5	C	0.008820	0.681448	0.620396
	C6	C	-0.017249	0.861294	0.405950
	C7	C	-0.069124	0.759769	-0.366696
	C8	C	0.110671	0.732885	-0.154308
	C9	C	0.017676	0.719081	0.483092
	C10	C	-0.019766	0.825936	0.263264
	C11	C	-0.031474	0.768589	-0.229500
	C12	C	0.075401	0.730475	-0.011329
	C13	C	0.000214	0.715637	0.276527
	C14	C	0.014628	0.804791	0.252271
	C15	C	-0.034759	0.750503	-0.024100
	C16	C	0.054364	0.764955	-0.000106
	C17	C	-0.024842	0.670932	0.213614
	C18	C	0.055618	0.827899	0.356688
	C19	C	-0.079431	0.725387	0.038903
	C20	C	0.077529	0.805916	-0.104597
	C21	C	-0.033288	0.632938	0.351104
	C22	C	0.059190	0.864838	0.490653
	C23	C	-0.117435	0.716915	-0.098534
	C24	C	0.114397	0.809381	-0.238852
	H25	H	0.019639	0.686324	0.783904
	H26	H	-0.045814	0.874610	0.418213
	H27	H	-0.064355	0.771008	-0.529674
	H28	H	0.123902	0.704263	-0.166646
	H29	H	0.038412	0.751886	0.539549
	H30	H	-0.050197	0.813235	0.165459
	H31	H	0.001249	0.789673	-0.285325
	H32	H	0.062698	0.700063	0.086579
	H33	H	-0.038466	0.665427	0.052584
	H34	H	0.084981	0.816009	0.335519
	H35	H	-0.084871	0.711662	0.199789
	H36	H	0.065763	0.835351	-0.083215
	H37	H	-0.054108	0.599608	0.298280
	H38	H	0.091154	0.882616	0.568888
	H39	H	-0.150700	0.695883	-0.046000
	H40	H	0.132232	0.841325	-0.317109
	N41	N	-0.023704	0.601028	0.710879
	N42	N	0.024766	0.910224	0.703397
	N43	N	-0.149415	0.726584	-0.458025
	N44	N	0.159583	0.774779	-0.451961
	C45	C	0.313803	0.756210	0.259318
	C46	C	0.291246	0.714288	0.356888
	C47	C	0.266789	0.711893	0.544786
	C48	C	0.262963	0.751118	0.647065
	C49	C	0.285242	0.792999	0.544713
	C50	C	0.310097	0.795551	0.357998
	C51	C	0.236831	0.748515	0.851285
	C52	C	0.233164	0.787755	0.954018
	C53	C	0.208714	0.785365	1.141936
	C54	C	0.186024	0.743437	1.239121
	C55	C	0.189570	0.704081	1.139980
	C56	C	0.214398	0.706624	0.953189
	H57	H	0.206112	0.816262	1.214462
	H58	H	0.326654	0.828496	0.284855
	H59	H	0.172900	0.671129	1.212805
	H60	H	0.293980	0.683403	0.284750
	H61	H	0.249007	0.821300	0.886516
	H62	H	0.283183	0.824658	0.609696
	H63	H	0.251103	0.678360	0.612747
	H64	H	0.216279	0.674944	0.887699
	C65	C	0.341953	0.759299	0.066732
	H66	H	0.365684	0.793418	0.032321
	C67	C	0.157964	0.740358	1.432012
	H68	H	0.133964	0.706326	1.465482
	C69	C	0.682933	0.743741	0.262486
	C70	C	0.714614	0.784777	0.327553
	C71	C	0.740435	0.787235	0.514471
	C72	C	0.736493	0.748958	0.648239
	C73	C	0.705032	0.707775	0.578090
	C74	C	0.679075	0.705231	0.392262
	C75	C	0.763950	0.751590	0.851635
	C76	C	0.759890	0.713344	0.985769
	C77	C	0.785695	0.715801	1.172735
	C78	C	0.817462	0.756807	1.237551
	C79	C	0.821448	0.795285	1.107370
	C80	C	0.795523	0.792739	0.921438
	H81	H	0.781872	0.685624	1.271085
	H82	H	0.654833	0.672853	0.346943
	H83	H	0.845769	0.827638	1.152431
	H84	H	0.718342	0.814977	0.229494
	H85	H	0.736326	0.680401	0.945380
	H86	H	0.700173	0.676667	0.669505
	H87	H	0.763890	0.820212	0.555206
	H88	H	0.800514	0.823813	0.829604
	C89	C	0.652496	0.740217	0.074750
	H90	H	0.630172	0.705350	0.042206
	C91	C	0.847814	0.760326	1.425613
	H92	H	0.870351	0.795141	1.457397
	C93	C	-0.005263	0.433699	0.989905
	C94	C	0.035762	0.465179	0.923298
	C95	C	0.038017	0.491019	0.736611
	C96	C	-0.000483	0.487353	0.604798
	C97	C	-0.041673	0.456204	0.676817
	C98	C	-0.044001	0.430159	0.862254
	C99	C	0.001959	0.514775	0.401437
	C100	C	-0.036211	0.510060	0.265990
	C101	C	-0.033950	0.535896	0.079243
	C102	C	0.006787	0.568284	0.015811
	C103	C	0.045190	0.572949	0.147400
	C104	C	0.042820	0.547074	0.333355
	H105	H	-0.064064	0.531569	-0.020151
	H106	H	-0.076384	0.406121	0.908962
	H107	H	0.077313	0.597825	0.103631
	H108	H	0.066141	0.468665	1.019723
	H109	H	-0.068895	0.485827	0.304833
	H110	H	-0.072970	0.451754	0.587429
	H111	H	0.071042	0.514132	0.694058
	H112	H	0.073769	0.552779	0.426884
	C113	C	-0.008422	0.403030	1.176575
	H114	H	-0.043188	0.380639	1.210342
	C115	C	0.010087	0.598626	-0.172107
	H116	H	0.044779	0.621525	-0.203189
	C117	C	0.006805	0.064664	0.992537
	C118	C	-0.035158	0.041903	0.895844
	C119	C	-0.037623	0.017446	0.707882
	C120	C	0.001574	0.013838	0.604570
	C121	C	0.043508	0.036372	0.705879
	C122	C	0.046122	0.061192	0.892772
	C123	C	-0.001118	-0.012306	0.400289
	C124	C	0.038055	-0.016107	0.297469
	C125	C	0.035570	-0.040584	0.109544
	C126	C	-0.006399	-0.063225	0.012590
	C127	C	-0.045694	-0.059605	0.112011
	C128	C	-0.043053	-0.034728	0.298729
	H129	H	0.066422	-0.043258	0.036863
	H130	H	0.079105	0.077913	0.965193
	H131	H	-0.078678	-0.076258	0.039454
	H132	H	-0.066034	0.044404	0.968961
	H133	H	0.071623	-0.000353	0.364924
	H134	H	0.075165	0.034563	0.639849
	H135	H	-0.071200	0.001524	0.640879
	H136	H	-0.074689	-0.032752	0.364307
	C137	C	0.009931	0.092431	1.186553
	H138	H	0.044043	0.116113	1.221354
	C139	C	-0.009589	-0.091325	-0.180280
	H140	H	-0.043650	-0.115298	-0.213470
	C141	C	0.491544	0.740989	0.373896
	C142	C	0.371480	0.728289	0.783586
	C143	C	0.515211	0.862929	-0.058232
	C144	C	0.479136	0.621015	-0.035925
	C145	C	0.613619	0.765709	0.805877
	C146	C	0.389207	0.766825	0.652830
	C147	C	0.490887	0.818598	-0.119946
	C148	C	0.517739	0.638938	0.094216
	C149	C	0.569464	0.740634	0.866887
	C150	C	0.424620	0.769371	0.510478
	C151	C	0.482354	0.780939	0.017049
	C152	C	0.520214	0.674318	0.236697
	C153	C	0.531801	0.731755	0.729763
	C154	C	0.445979	0.735121	0.500727
	C155	C	0.500031	0.784414	0.223241
	C156	C	0.485722	0.695329	0.247971
	C157	C	0.535061	0.749748	0.524180
	C158	C	0.422805	0.694072	0.604547
	C159	C	0.524672	0.829202	0.286657
	C160	C	0.444750	0.672154	0.143577
	C161	C	0.579697	0.774977	0.461181
	C162	C	0.385836	0.690469	0.738329
	C163	C	0.532827	0.867213	0.149433
	C164	C	0.441244	0.635226	0.009655
	C165	C	0.617709	0.783542	0.598624
	H166	H	0.375653	0.795249	0.663972
	H167	H	0.479821	0.813737	-0.283125
	H168	H	0.546293	0.625594	0.082368
	H169	H	0.564741	0.729277	1.029713
	H170	H	0.437097	0.799659	0.411573
	H171	H	0.461588	0.748123	-0.039171
	H172	H	0.550569	0.686976	0.335035
	H173	H	0.499138	0.710480	0.785397
	H174	H	0.434715	0.664718	0.583498
	H175	H	0.538271	0.834732	0.447729
	H176	H	0.415343	0.683975	0.164766
	H177	H	0.585096	0.788716	0.300309
	H178	H	0.368071	0.658500	0.816561
	H179	H	0.553411	0.900613	0.202498
	H180	H	0.409288	0.617391	-0.068502
	H181	H	0.650947	0.804643	0.546095
	N182	N	0.340376	0.724892	0.950673
	N183	N	0.522953	0.899099	-0.209994
	N184	N	0.475747	0.589858	-0.202774
	N185	N	0.649741	0.773927	0.958105
	C186	C	-0.008281	0.242271	0.876567
	C187	C	-0.021459	0.120785	0.473526
	C188	C	0.113265	0.269106	1.312730
	C189	C	-0.129926	0.228519	1.279244
	C190	C	0.018418	0.363781	0.440245
	C191	C	0.017799	0.140019	0.597856
	C192	C	0.069359	0.242808	1.371593
	C193	C	-0.110797	0.267845	1.155186
	C194	C	-0.008114	0.319916	0.381928
	C195	C	0.020405	0.175654	0.738979
	C196	C	0.031825	0.233345	1.233461
	C197	C	-0.075097	0.270637	1.014189
	C198	C	-0.017555	0.282399	0.520180
	C199	C	-0.014056	0.196712	0.749818
	C200	C	0.035191	0.250924	1.027064
	C201	C	-0.053880	0.236300	1.003214
	C202	C	0.000253	0.285746	0.726162
	C203	C	-0.055075	0.173515	0.645851
	C204	C	0.079861	0.276039	0.964031
	C205	C	-0.076950	0.195212	1.106970
	C206	C	0.025495	0.330401	0.788865
	C207	C	-0.058834	0.136193	0.514111
	C208	C	0.117757	0.285145	1.102357
	C209	C	-0.114329	0.191267	1.238578
	C210	C	0.034618	0.368272	0.650361
	H211	H	0.046496	0.126900	0.585482
	H212	H	0.064540	0.231525	1.534472
	H213	H	-0.124045	0.296454	1.167717
	H214	H	-0.019574	0.315109	0.219287
	H215	H	0.050969	0.188623	0.835656
	H216	H	-0.000797	0.211942	1.289058
	H217	H	-0.062196	0.301245	0.917735
	H218	H	-0.039108	0.249799	0.465005
	H219	H	-0.084369	0.185568	0.665909
	H220	H	0.085376	0.289325	0.802452
	H221	H	-0.064738	0.166019	1.086889
	H222	H	0.038869	0.335921	0.950307
	H223	H	-0.090774	0.118572	0.435270
	H224	H	0.151107	0.305755	1.048897
	H225	H	-0.131848	0.159274	1.317247
	H226	H	0.055382	0.401597	0.703437
	N227	N	-0.024532	0.090699	0.302322
	N228	N	0.149700	0.276208	1.462504
	N229	N	-0.160083	0.225274	1.450304
	N230	N	0.025638	0.400175	0.290209
	C231	C	0.493642	0.435688	-0.492789
	C232	C	0.535600	0.458168	-0.395343
	C233	C	0.538087	0.482585	-0.207239
	C234	C	0.498914	0.486365	-0.104323
	C235	C	0.456971	0.463871	-0.205644
	C236	C	0.454334	0.439081	-0.392642
	C237	C	0.501624	0.512489	0.100023
	C238	C	0.462454	0.516270	0.202960
	C239	C	0.464947	0.540693	0.391049
	C240	C	0.506910	0.563185	0.488427
	C241	C	0.546214	0.559790	0.388263
	C242	C	0.543570	0.534975	0.201343
	H243	H	0.434098	0.543372	0.463753
	H244	H	0.421344	0.422398	-0.465078
	H245	H	0.579209	0.576511	0.460569
	H246	H	0.566455	0.455535	-0.468165
	H247	H	0.428886	0.500560	0.135435
	H248	H	0.425323	0.465695	-0.139573
	H249	H	0.571654	0.498312	-0.139730
	H250	H	0.575215	0.533147	0.135264
	C251	C	0.490473	0.407744	-0.686230
	H252	H	0.456342	0.384070	-0.720765
	C253	C	0.510092	0.591440	0.680766
	H254	H	0.544123	0.615511	0.713540
	C255	C	0.504201	1.065679	-0.490642
	C256	C	0.463021	1.034810	-0.421791
	C257	C	0.460768	1.009091	-0.234715
	C258	C	0.499423	1.012286	-0.104701
	C259	C	0.540701	1.043022	-0.178225
	C260	C	0.543017	1.068992	-0.363889
	C261	C	0.497025	0.984921	0.098783
	C262	C	0.535159	0.989906	0.234766
	C263	C	0.532947	0.964145	0.421703
	C264	C	0.492258	0.931694	0.485250
	C265	C	0.453949	0.926581	0.352474
	C266	C	0.456281	0.952340	0.166166
	H267	H	0.563043	0.968652	0.521428
	H268	H	0.575488	1.092685	-0.411878
	H269	H	0.421928	0.901472	0.395692
	H270	H	0.432534	1.031678	-0.516888
	H271	H	0.567759	1.014332	0.196278
	H272	H	0.572095	1.047111	-0.090127
	H273	H	0.427621	0.986533	-0.190083
	H274	H	0.425444	0.946229	0.071434
	C275	C	0.507386	1.096370	-0.677265
	H276	H	0.542176	1.118693	-0.711132
	C277	C	0.489113	0.901265	0.672741
	H278	H	0.454504	0.878128	0.703316
	C279	C	0.317095	0.256039	0.737655
	C280	C	0.284872	0.215337	0.672539
	C281	C	0.259117	0.213308	0.485735
	C282	C	0.263829	0.251667	0.351555
	C283	C	0.296069	0.292454	0.420906
	C284	C	0.321884	0.294589	0.606933
	C285	C	0.236512	0.249438	0.148012
	C286	C	0.240428	0.288015	0.016358
	C287	C	0.214683	0.285937	-0.170517
	C288	C	0.183151	0.245002	-0.237822
	C289	C	0.179158	0.206248	-0.109601
	C290	C	0.205079	0.208402	0.076091
	H291	H	0.218353	0.316372	-0.266793
	H292	H	0.346763	0.326645	0.651580
	H293	H	0.154899	0.173979	-0.156212
	H294	H	0.280592	0.185059	0.770734
	H295	H	0.263693	0.320950	0.059137
	H296	H	0.301786	0.323523	0.328268
	H297	H	0.235035	0.180624	0.445610
	H298	H	0.200257	0.177088	0.165828
	C299	C	0.347730	0.258857	0.924173
	H300	H	0.370864	0.293399	0.956018
	C301	C	0.152406	0.242067	-0.424022
	H302	H	0.129837	0.207372	-0.457771
	C303	C	0.685931	0.242707	0.741108
	C304	C	0.708525	0.284709	0.644311
	C305	C	0.732963	0.287271	0.456227
	C306	C	0.736649	0.248132	0.352638
	C307	C	0.714027	0.206140	0.453262
	C308	C	0.689221	0.203431	0.640262
	C309	C	0.762811	0.250925	0.148338
	C310	C	0.766625	0.211799	0.045092
	C311	C	0.791078	0.214370	-0.142960
	C312	C	0.813574	0.256372	-0.240000
	C313	C	0.810147	0.295634	-0.139521
	C314	C	0.785311	0.292912	0.047388
	H315	H	0.793736	0.183548	-0.216039
	H316	H	0.672425	0.170403	0.712088
	H317	H	0.826855	0.328660	-0.211578
	H318	H	0.705974	0.315546	0.717660
	H319	H	0.750908	0.178203	0.112338
	H320	H	0.715742	0.174507	0.386551
	H321	H	0.748803	0.320876	0.389331
	H322	H	0.783455	0.324530	0.113698
	C323	C	0.657977	0.239484	0.934577
	H324	H	0.634215	0.205374	0.968650
	C325	C	0.841610	0.259626	-0.433199
	H326	H	0.865102	0.293828	-0.468068
	C327	C	0.507977	0.257568	0.624166
	C328	C	0.480648	0.136018	1.060480
	C329	C	0.521727	0.379196	1.027051
	C330	C	0.386484	0.231504	0.188042
	C331	C	0.629536	0.270751	0.221740
	C332	C	0.507445	0.179790	1.118710
	C333	C	0.482453	0.360136	0.902577
	C334	C	0.430503	0.257443	0.129001
	C335	C	0.610234	0.231454	0.345743
	C336	C	0.517080	0.217313	0.980436
	C337	C	0.479681	0.324449	0.761547
	C338	C	0.468026	0.266664	0.267108
	C339	C	0.574556	0.228823	0.486636
	C340	C	0.499218	0.214071	0.774562
	C341	C	0.513974	0.303169	0.750912
	C342	C	0.464536	0.249145	0.473625
	C343	C	0.553540	0.263315	0.497593
	C344	C	0.473714	0.169495	0.711931
	C345	C	0.555031	0.326185	0.855043
	C346	C	0.419781	0.224336	0.536742
	C347	C	0.576780	0.304355	0.393888
	C348	C	0.464392	0.131616	0.850448
	C349	C	0.558962	0.363553	0.986730
	C350	C	0.381889	0.215511	0.398494
	C351	C	0.614133	0.308130	0.262362
	H352	H	0.518978	0.184512	1.281272
	H353	H	0.453878	0.373442	0.914772
	H354	H	0.435425	0.268636	-0.033970
	H355	H	0.623330	0.202741	0.333256
	H356	H	0.538841	0.249831	1.035493
	H357	H	0.449116	0.311626	0.664752
	H358	H	0.500736	0.287831	0.211387
	H359	H	0.561509	0.198224	0.583024
	H360	H	0.460309	0.164045	0.550519
	H361	H	0.584216	0.313956	0.835124
	H362	H	0.414188	0.211073	0.698338
	H363	H	0.564721	0.333648	0.413932
	H364	H	0.443438	0.098361	0.797442
	H365	H	0.590930	0.381034	1.065677
	H366	H	0.348448	0.195168	0.452089
	H367	H	0.631785	0.340089	0.183743
	N368	N	0.473289	0.099595	1.210434
	N369	N	0.524909	0.409365	1.198006
	N370	N	0.350054	0.224681	0.038434
	N371	N	0.659697	0.273877	0.050829
