data_Molecule from CHK

_cell_length_a		30.767807
_cell_length_b		30.768091
_cell_length_c		6.269132
_cell_angle_alpha	89.273713
_cell_angle_beta	90.730683
_cell_angle_gamma	107.914130
_symmetry_space_group_name_H-M	'P 1'
_symmetry_Int_Tables_number		1

loop_
	_symmetry_equiv_pos_as_xyz
	x,y,z

loop_
	_atom_site_label
	_atom_site_type_symbol
	_atom_site_fract_x
	_atom_site_fract_y
	_atom_site_fract_z
	C0	C	0.008395	0.759507	0.126268
	C1	C	-0.015812	0.637602	0.558921
	C2	C	0.021126	0.879564	0.535971
	C3	C	-0.113671	0.734857	-0.305637
	C4	C	0.128162	0.771779	-0.284798
	C5	C	0.008475	0.681917	0.620817
	C6	C	-0.017494	0.861711	0.405869
	C7	C	-0.069579	0.760171	-0.366316
	C8	C	0.110321	0.733262	-0.154115
	C9	C	0.017238	0.719544	0.483575
	C10	C	-0.020067	0.826308	0.263382
	C11	C	-0.031920	0.769077	-0.229129
	C12	C	0.075068	0.730880	-0.011109
	C13	C	-0.000084	0.716048	0.276702
	C14	C	0.014308	0.805167	0.252287
	C15	C	-0.035107	0.750844	-0.023969
	C16	C	0.054013	0.765330	-0.000142
	C17	C	-0.024959	0.671314	0.213581
	C18	C	0.055311	0.828279	0.356534
	C19	C	-0.079712	0.725538	0.038960
	C20	C	0.077162	0.806252	-0.104891
	C21	C	-0.033298	0.633325	0.350992
	C22	C	0.058933	0.865248	0.490329
	C23	C	-0.117715	0.716937	-0.098510
	C24	C	0.114019	0.809694	-0.239164
	H25	H	0.019182	0.686821	0.784502
	H26	H	-0.046039	0.875036	0.418157
	H27	H	-0.064888	0.771576	-0.529129
	H28	H	0.123559	0.704657	-0.166276
	H29	H	0.037792	0.752382	0.540344
	H30	H	-0.050521	0.813575	0.165775
	H31	H	0.000738	0.790341	-0.284777
	H32	H	0.062396	0.700507	0.087026
	H33	H	-0.038529	0.665781	0.052430
	H34	H	0.084644	0.816363	0.335380
	H35	H	-0.085097	0.711765	0.199816
	H36	H	0.065403	0.835680	-0.083639
	H37	H	-0.053960	0.599963	0.297928
	H38	H	0.090910	0.883028	0.568411
	H39	H	-0.150910	0.695727	-0.046112
	H40	H	0.131848	0.841614	-0.317560
	N41	N	-0.023658	0.601459	0.710871
	N42	N	0.024625	0.910710	0.702994
	N43	N	-0.149783	0.726515	-0.457908
	N44	N	0.159200	0.775053	-0.452085
	C45	C	0.313194	0.755814	0.259053
	C46	C	0.290540	0.713951	0.356791
	C47	C	0.266113	0.711659	0.544741
	C48	C	0.262422	0.750935	0.646928
	C49	C	0.284799	0.792756	0.544411
	C50	C	0.309618	0.795204	0.357627
	C51	C	0.236328	0.748445	0.851220
	C52	C	0.232748	0.787731	0.953731
	C53	C	0.208333	0.785442	1.141720
	C54	C	0.185593	0.743575	1.239207
	C55	C	0.189055	0.704175	1.140292
	C56	C	0.213845	0.706616	0.953424
	H57	H	0.205795	0.816372	1.214058
	H58	H	0.326256	0.828108	0.284367
	H59	H	0.172345	0.671267	1.213343
	H60	H	0.293173	0.683030	0.284731
	H61	H	0.248627	0.821235	0.885971
	H62	H	0.282855	0.824452	0.609347
	H63	H	0.250341	0.678164	0.612814
	H64	H	0.215662	0.674908	0.888112
	C65	C	0.341317	0.758800	0.066423
	H66	H	0.365099	0.792875	0.031890
	C67	C	0.157561	0.740595	1.432154
	H68	H	0.133555	0.706593	1.465926
	C69	C	0.682009	0.742836	0.263216
	C70	C	0.713973	0.783805	0.326901
	C71	C	0.739851	0.786348	0.513713
	C72	C	0.735624	0.748245	0.648954
	C73	C	0.703835	0.707130	0.580335
	C74	C	0.677877	0.704488	0.394416
	C75	C	0.763113	0.750997	0.852354
	C76	C	0.759593	0.712706	0.985359
	C77	C	0.785413	0.715304	1.172398
	C78	C	0.816720	0.756488	1.238183
	C79	C	0.820162	0.795002	1.109138
	C80	C	0.794160	0.792329	0.923341
	H81	H	0.782000	0.685098	1.269926
	H82	H	0.653377	0.672178	0.350297
	H83	H	0.844068	0.827504	1.155134
	H84	H	0.717910	0.813877	0.227726
	H85	H	0.736538	0.679600	0.943713
	H86	H	0.698623	0.676187	0.673356
	H87	H	0.763667	0.819227	0.552893
	H88	H	0.798575	0.823475	0.832858
	C89	C	0.651550	0.739260	0.075506
	H90	H	0.629080	0.704427	0.043755
	C91	C	0.847127	0.760188	1.426204
	H92	H	0.869399	0.795082	1.458383
	C93	C	-0.004574	0.434518	0.990287
	C94	C	0.036452	0.465854	0.922872
	C95	C	0.038636	0.491649	0.736071
	C96	C	0.000050	0.488109	0.605079
	C97	C	-0.041140	0.457135	0.678003
	C98	C	-0.043390	0.431105	0.863442
	C99	C	0.002395	0.515492	0.401656
	C100	C	-0.035758	0.510514	0.265823
	C101	C	-0.033606	0.536330	0.079083
	C102	C	0.007008	0.568932	0.015966
	C103	C	0.045399	0.573852	0.147906
	C104	C	0.043129	0.548020	0.333949
	H105	H	-0.063705	0.531809	-0.020597
	H106	H	-0.075781	0.407204	0.910885
	H107	H	0.077420	0.598907	0.104383
	H108	H	0.066891	0.469241	1.018676
	H109	H	-0.068329	0.486044	0.304221
	H110	H	-0.072510	0.452867	0.589512
	H111	H	0.071675	0.514584	0.692597
	H112	H	0.074037	0.553977	0.427982
	C113	C	-0.007678	0.403876	1.177022
	H114	H	-0.042436	0.381552	1.211304
	C115	C	0.010174	0.599247	-0.171952
	H116	H	0.044791	0.622310	-0.202853
	C117	C	0.007337	0.065366	0.992571
	C118	C	-0.034663	0.042580	0.896337
	C119	C	-0.037225	0.018091	0.708377
	C120	C	0.001908	0.014480	0.604575
	C121	C	0.043881	0.037042	0.705420
	C122	C	0.046591	0.061888	0.892332
	C123	C	-0.000888	-0.011691	0.400273
	C124	C	0.038216	-0.015553	0.297132
	C125	C	0.035633	-0.040049	0.109164
	C126	C	-0.006371	-0.062654	0.012497
	C127	C	-0.045598	-0.058982	0.112263
	C128	C	-0.042860	-0.034082	0.299010
	H129	H	0.066435	-0.042766	0.036223
	H130	H	0.079603	0.078639	0.964352
	H131	H	-0.078608	-0.075619	0.039973
	H132	H	-0.065495	0.045078	0.969833
	H133	H	0.071804	0.000166	0.364375
	H134	H	0.075495	0.035246	0.638936
	H135	H	-0.070828	0.002133	0.641807
	H136	H	-0.074446	-0.032062	0.364866
	C137	C	0.010551	0.093167	1.186569
	H138	H	0.044669	0.116845	1.221092
	C139	C	-0.009667	-0.090783	-0.180389
	H140	H	-0.043744	-0.114731	-0.213281
	C141	C	0.490792	0.740221	0.373748
	C142	C	0.370763	0.727702	0.783335
	C143	C	0.514667	0.862185	-0.058237
	C144	C	0.478236	0.620225	-0.036081
	C145	C	0.612821	0.764729	0.805890
	C146	C	0.388553	0.766212	0.652544
	C147	C	0.490245	0.817900	-0.120015
	C148	C	0.516808	0.638085	0.094297
	C149	C	0.568648	0.739758	0.866950
	C150	C	0.423960	0.768705	0.510252
	C151	C	0.481654	0.780234	0.016924
	C152	C	0.519323	0.673477	0.236730
	C153	C	0.530998	0.730945	0.729787
	C154	C	0.445245	0.734419	0.500551
	C155	C	0.499354	0.783649	0.223118
	C156	C	0.484905	0.694561	0.247773
	C157	C	0.534289	0.748913	0.524109
	C158	C	0.422009	0.693403	0.604373
	C159	C	0.524074	0.828396	0.286622
	C160	C	0.443946	0.671452	0.143161
	C161	C	0.578939	0.774050	0.461080
	C162	C	0.385050	0.689855	0.738128
	C163	C	0.532295	0.866414	0.149455
	C164	C	0.440397	0.634516	0.009244
	C165	C	0.616940	0.782541	0.598544
	H166	H	0.375062	0.794663	0.663651
	H167	H	0.479138	0.813081	-0.283196
	H168	H	0.545309	0.624678	0.082669
	H169	H	0.563891	0.728428	1.029839
	H170	H	0.436486	0.798979	0.411347
	H171	H	0.460820	0.747459	-0.039353
	H172	H	0.549656	0.686081	0.335227
	H173	H	0.498319	0.709747	0.785496
	H174	H	0.433860	0.664026	0.583321
	H175	H	0.537681	0.833886	0.447735
	H176	H	0.414583	0.683327	0.164202
	H177	H	0.584360	0.787779	0.300163
	H178	H	0.367242	0.657908	0.816364
	H179	H	0.552938	0.899776	0.202600
	H180	H	0.408451	0.616735	-0.069085
	H181	H	0.650196	0.803564	0.545948
	N182	N	0.339670	0.724370	0.950443
	N183	N	0.522486	0.898363	-0.209954
	N184	N	0.474844	0.589061	-0.202945
	N185	N	0.648942	0.772906	0.958086
	C186	C	-0.007488	0.243102	0.876579
	C187	C	-0.020737	0.121589	0.473707
	C188	C	0.114075	0.269956	1.312538
	C189	C	-0.129163	0.229255	1.279147
	C190	C	0.019203	0.364582	0.440251
	C191	C	0.018533	0.140841	0.597906
	C192	C	0.070198	0.243624	1.371495
	C193	C	-0.110041	0.268581	1.155135
	C194	C	-0.007327	0.320734	0.381862
	C195	C	0.021171	0.176494	0.738939
	C196	C	0.032652	0.234165	1.233454
	C197	C	-0.074322	0.271408	1.014212
	C198	C	-0.016761	0.283222	0.520103
	C199	C	-0.013270	0.197554	0.749797
	C200	C	0.035985	0.251760	1.027041
	C201	C	-0.053076	0.237115	1.003288
	C202	C	0.001037	0.286563	0.726157
	C203	C	-0.054292	0.174354	0.645922
	C204	C	0.080631	0.276890	0.963894
	C205	C	-0.076126	0.196031	1.107036
	C206	C	0.026270	0.331203	0.788933
	C207	C	-0.058083	0.137015	0.514299
	C208	C	0.118537	0.286010	1.102148
	C209	C	-0.113524	0.192047	1.238532
	C210	C	0.035399	0.369065	0.650429
	H211	H	0.047213	0.127718	0.585487
	H212	H	0.065425	0.232299	1.534378
	H213	H	-0.123314	0.297158	1.167628
	H214	H	-0.018799	0.315945	0.219183
	H215	H	0.051736	0.189467	0.835583
	H216	H	0.000049	0.212748	1.289108
	H217	H	-0.061439	0.302006	0.917708
	H218	H	-0.038301	0.250630	0.464874
	H219	H	-0.083567	0.186416	0.665962
	H220	H	0.086122	0.290176	0.802268
	H221	H	-0.063889	0.166868	1.087009
	H222	H	0.039635	0.336719	0.950432
	H223	H	-0.090028	0.119385	0.435575
	H224	H	0.151863	0.306640	1.048617
	H225	H	-0.131036	0.160053	1.317136
	H226	H	0.056164	0.402376	0.703546
	N227	N	-0.023861	0.091470	0.302591
	N228	N	0.150509	0.277047	1.462303
	N229	N	-0.159355	0.225955	1.450122
	N230	N	0.026416	0.400965	0.290185
	C231	C	0.493410	0.435072	-0.493058
	C232	C	0.535307	0.457647	-0.395386
	C233	C	0.537682	0.482038	-0.207252
	C234	C	0.498450	0.485683	-0.104486
	C235	C	0.456569	0.463092	-0.206021
	C236	C	0.454045	0.438339	-0.393089
	C237	C	0.501042	0.511770	0.099923
	C238	C	0.461825	0.515534	0.202393
	C239	C	0.464213	0.539916	0.390571
	C240	C	0.506114	0.562389	0.488478
	C241	C	0.545463	0.559014	0.388762
	C242	C	0.542921	0.534235	0.201777
	H243	H	0.433334	0.542586	0.462909
	H244	H	0.421098	0.421580	-0.465691
	H245	H	0.578410	0.575715	0.461500
	H246	H	0.566206	0.455110	-0.468054
	H247	H	0.428306	0.499861	0.134345
	H248	H	0.424880	0.464793	-0.140003
	H249	H	0.571213	0.497858	-0.139622
	H250	H	0.574594	0.532406	0.136109
	C251	C	0.490365	0.407155	-0.686525
	H252	H	0.456281	0.383434	-0.721308
	C253	C	0.509217	0.590616	0.680876
	H254	H	0.543239	0.614655	0.713986
	C255	C	0.504258	1.065152	-0.490636
	C256	C	0.463029	1.034390	-0.421787
	C257	C	0.460694	1.008659	-0.234679
	C258	C	0.499310	1.011734	-0.104623
	C259	C	0.540637	1.042355	-0.178174
	C260	C	0.543034	1.068338	-0.363864
	C261	C	0.496829	0.984361	0.098913
	C262	C	0.534947	0.989195	0.234793
	C263	C	0.532662	0.963414	0.421736
	C264	C	0.491912	0.931096	0.485392
	C265	C	0.453615	0.926146	0.352768
	C266	C	0.456020	0.951927	0.166462
	H267	H	0.562745	0.967801	0.521385
	H268	H	0.575542	1.091940	-0.411867
	H269	H	0.421545	0.901153	0.396132
	H270	H	0.432572	1.031352	-0.516922
	H271	H	0.567595	1.013511	0.196244
	H272	H	0.572007	1.046339	-0.090100
	H273	H	0.427516	0.986184	-0.190062
	H274	H	0.425181	0.945955	0.071891
	C275	C	0.507539	1.095855	-0.677304
	H276	H	0.542357	1.118084	-0.711183
	C277	C	0.488684	0.900641	0.672856
	H278	H	0.454048	0.877592	0.703465
	C279	C	0.317637	0.255989	0.737322
	C280	C	0.285246	0.215418	0.672102
	C281	C	0.259541	0.213544	0.485221
	C282	C	0.264515	0.251927	0.350955
	C283	C	0.296945	0.292576	0.420322
	C284	C	0.322677	0.294565	0.606531
	C285	C	0.237272	0.249850	0.147267
	C286	C	0.240969	0.288579	0.017064
	C287	C	0.215304	0.286626	-0.170012
	C288	C	0.184037	0.245682	-0.238822
	C289	C	0.180267	0.206784	-0.112050
	C290	C	0.206146	0.208805	0.073710
	H291	H	0.218800	0.317170	-0.265166
	H292	H	0.347702	0.326515	0.651251
	H293	H	0.156251	0.174495	-0.160001
	H294	H	0.280779	0.185123	0.770336
	H295	H	0.263936	0.321544	0.061389
	H296	H	0.302916	0.323635	0.327438
	H297	H	0.235245	0.180980	0.445235
	H298	H	0.201604	0.177365	0.161973
	C299	C	0.348200	0.258647	0.923997
	H300	H	0.371439	0.293122	0.956006
	C301	C	0.153329	0.242842	-0.425110
	H302	H	0.130879	0.208153	-0.459766
	C303	C	0.686455	0.242793	0.741235
	C304	C	0.708965	0.284820	0.644555
	C305	C	0.733422	0.287469	0.456438
	C306	C	0.737217	0.248400	0.352715
	C307	C	0.714680	0.206383	0.453227
	C308	C	0.689850	0.203586	0.640245
	C309	C	0.763403	0.251287	0.148394
	C310	C	0.767252	0.212226	0.044788
	C311	C	0.791732	0.214886	-0.143275
	C312	C	0.814213	0.256916	-0.240002
	C313	C	0.810747	0.296113	-0.139169
	C314	C	0.785892	0.293304	0.047773
	H315	H	0.794416	0.184110	-0.216621
	H316	H	0.673121	0.170542	0.711996
	H317	H	0.827449	0.329159	-0.210954
	H318	H	0.706335	0.315604	0.718026
	H319	H	0.751532	0.178611	0.111718
	H320	H	0.716489	0.174802	0.386435
	H321	H	0.749184	0.321086	0.389608
	H322	H	0.784024	0.324876	0.114420
	C323	C	0.658477	0.239470	0.934722
	H324	H	0.634781	0.205331	0.968671
	C325	C	0.842279	0.260257	-0.433198
	H326	H	0.865741	0.294471	-0.467876
	C327	C	0.508255	0.257129	0.624084
	C328	C	0.480930	0.135599	1.060379
	C329	C	0.521766	0.378691	1.027003
	C330	C	0.386788	0.231128	0.187853
	C331	C	0.629902	0.270591	0.221967
	C332	C	0.507862	0.179321	1.118433
	C333	C	0.482556	0.359606	0.902199
	C334	C	0.430833	0.256912	0.128603
	C335	C	0.610639	0.231272	0.345835
	C336	C	0.517499	0.216837	0.980138
	C337	C	0.479867	0.323945	0.761172
	C338	C	0.468349	0.266095	0.266699
	C339	C	0.574916	0.228546	0.486590
	C340	C	0.499526	0.213637	0.774425
	C341	C	0.514178	0.302706	0.750883
	C342	C	0.464831	0.248675	0.473433
	C343	C	0.553832	0.262962	0.497567
	C344	C	0.473945	0.169095	0.711856
	C345	C	0.555181	0.325757	0.855287
	C346	C	0.420065	0.223958	0.536658
	C347	C	0.577024	0.304024	0.393999
	C348	C	0.464600	0.131228	0.850408
	C349	C	0.559032	0.363102	0.986983
	C350	C	0.382174	0.215189	0.398439
	C351	C	0.614408	0.307893	0.262587
	H352	H	0.519504	0.184014	1.280897
	H353	H	0.453966	0.372875	0.914152
	H354	H	0.435777	0.268027	-0.034505
	H355	H	0.623801	0.202619	0.333351
	H356	H	0.539349	0.249320	1.035049
	H357	H	0.449352	0.311116	0.664084
	H358	H	0.501073	0.287162	0.210797
	H359	H	0.561898	0.197939	0.582916
	H360	H	0.460500	0.163663	0.550464
	H361	H	0.584391	0.313583	0.835525
	H362	H	0.414461	0.210725	0.698332
	H363	H	0.564895	0.333256	0.414050
	H364	H	0.443572	0.098005	0.797474
	H365	H	0.590960	0.380612	1.066133
	H366	H	0.348721	0.194940	0.452198
	H367	H	0.632016	0.339865	0.184038
	N368	N	0.473495	0.099183	1.210372
	N369	N	0.524851	0.408845	1.197961
	N370	N	0.350370	0.224419	0.038228
	N371	N	0.660100	0.273809	0.051108
