data_Molecule from CHK

_cell_length_a		30.922388
_cell_length_b		30.922388
_cell_length_c		10.932664
_cell_angle_alpha	90.000000
_cell_angle_beta	90.000000
_cell_angle_gamma	90.000000
_symmetry_space_group_name_H-M	'P 1'
_symmetry_Int_Tables_number		1

loop_
	_symmetry_equiv_pos_as_xyz
	x,y,z

loop_
	_atom_site_label
	_atom_site_type_symbol
	_atom_site_fract_x
	_atom_site_fract_y
	_atom_site_fract_z
	C0	C	0.000000	0.750000	0.500000
	C1	C	-0.003039	0.629265	0.719575
	C2	C	0.006636	0.866625	0.735861
	C3	C	-0.120585	0.745254	0.280117
	C4	C	0.116685	0.758147	0.264652
	C5	C	0.004087	0.669405	0.775823
	C6	C	-0.031273	0.856645	0.671406
	C7	C	-0.080775	0.754643	0.224687
	C8	C	0.106832	0.719919	0.327737
	C9	C	0.005371	0.707604	0.707694
	C10	C	-0.033868	0.819977	0.597128
	C11	C	-0.042560	0.756066	0.292720
	C12	C	0.070152	0.716854	0.401832
	C13	C	-0.000550	0.707814	0.580514
	C14	C	0.001149	0.791608	0.582829
	C15	C	-0.042145	0.748949	0.419401
	C16	C	0.041636	0.751688	0.417317
	C17	C	-0.009607	0.667696	0.526047
	C18	C	0.039337	0.802624	0.645000
	C19	C	-0.082174	0.739497	0.473861
	C20	C	0.052523	0.790186	0.356496
	C21	C	-0.010865	0.629381	0.593389
	C22	C	0.042178	0.839139	0.719552
	C23	C	-0.120506	0.738095	0.406625
	C24	C	0.089046	0.793500	0.282130
	H25	H	0.008149	0.670584	0.874256
	H26	H	-0.059080	0.877710	0.681321
	H27	H	-0.079833	0.759914	0.126685
	H28	H	0.127998	0.692233	0.316889
	H29	H	0.010243	0.737766	0.755760
	H30	H	-0.063763	0.813834	0.548924
	H31	H	-0.012559	0.762174	0.244991
	H32	H	0.064127	0.686721	0.448941
	H33	H	-0.015855	0.666720	0.428501
	H34	H	0.067347	0.781885	0.634317
	H35	H	-0.083082	0.733212	0.571394
	H36	H	0.031685	0.818077	0.368072
	H37	H	-0.018070	0.598939	0.548617
	H38	H	0.072121	0.846743	0.766415
	H39	H	-0.150906	0.730795	0.451500
	H40	H	0.096543	0.823674	0.236326
	N41	N	-0.005389	0.590653	0.787137
	N42	N	0.010053	0.904195	0.807691
	N43	N	-0.159508	0.745183	0.213648
	N44	N	0.154261	0.762043	0.193039
	C45	C	0.287073	0.757519	-0.073313
	C46	C	0.212858	0.742486	0.073036
	C47	C	0.272453	0.715292	-0.050004
	C48	C	0.227579	0.784705	0.050138
	C49	C	0.236092	0.707893	0.021716
	C50	C	0.263944	0.792105	-0.021573
	H51	H	0.274858	0.824874	-0.038281
	H52	H	0.225249	0.675118	0.038703
	H53	H	0.209869	0.811533	0.089805
	H54	H	0.290221	0.688458	-0.089426
	C55	C	0.325806	0.765422	-0.149136
	H56	H	0.335123	0.799377	-0.162788
	C57	C	0.174346	0.734549	0.149721
	H58	H	0.165156	0.700579	0.163787
	C59	C	0.709117	0.746869	-0.058071
	C60	C	0.790911	0.753021	0.057957
	C61	C	0.745020	0.764127	-0.119898
	C62	C	0.754967	0.735925	0.119954
	C63	C	0.785115	0.767161	-0.063111
	C64	C	0.714870	0.732896	0.063169
	H65	H	0.687487	0.719637	0.112338
	H66	H	0.812469	0.780531	-0.112169
	H67	H	0.759200	0.725084	0.213534
	H68	H	0.740767	0.775064	-0.213380
	C69	C	0.666450	0.743777	-0.118156
	H70	H	0.640038	0.729955	-0.063428
	C71	C	0.833496	0.756466	0.118353
	H72	H	0.859851	0.770467	0.063760
	C73	C	-0.003223	0.459141	0.058170
	C74	C	0.003114	0.540888	-0.058053
	C75	C	0.014554	0.494908	0.119451
	C76	C	-0.014502	0.505078	-0.119509
	C77	C	0.017679	0.534979	0.062568
	C78	C	-0.017622	0.465006	-0.062628
	H79	H	-0.031285	0.437727	-0.111378
	H80	H	0.031452	0.562227	0.111204
	H81	H	-0.025673	0.509396	-0.212746
	H82	H	0.025821	0.490569	0.212588
	C83	C	-0.006413	0.416499	0.118353
	H84	H	-0.020653	0.390196	0.064062
	C85	C	0.006655	0.583445	-0.118557
	H86	H	0.021072	0.609689	-0.064407
	C87	C	0.007507	0.037211	0.072759
	C88	C	-0.007499	-0.037280	-0.072482
	C89	C	-0.034643	0.021814	0.052561
	C90	C	0.034639	-0.021781	-0.052695
	C91	C	-0.042030	-0.014684	-0.018614
	C92	C	0.042025	0.014720	0.018471
	H93	H	0.074731	0.026237	0.032765
	H94	H	-0.074745	-0.026130	-0.033186
	H95	H	0.061414	-0.038998	-0.094338
	H96	H	-0.061428	0.039087	0.093960
	C97	C	0.015392	0.076090	0.148000
	H98	H	0.049283	0.086032	0.159151
	C99	C	-0.015429	-0.075938	-0.148583
	H100	H	-0.049342	-0.085755	-0.160145
	C101	C	0.500000	0.750000	0.500000
	C102	C	0.383219	0.743006	0.735393
	C103	C	0.502665	0.870595	0.280020
	C104	C	0.492305	0.632364	0.268321
	C105	C	0.621253	0.753579	0.717077
	C106	C	0.392791	0.780702	0.669365
	C107	C	0.494835	0.830537	0.224163
	C108	C	0.530762	0.643106	0.329163
	C109	C	0.581441	0.745310	0.773827
	C110	C	0.429564	0.783411	0.595535
	C111	C	0.493773	0.792336	0.292310
	C112	C	0.533573	0.679934	0.402747
	C113	C	0.543045	0.743961	0.706596
	C114	C	0.458504	0.748760	0.583274
	C115	C	0.500671	0.792085	0.419082
	C116	C	0.498551	0.708252	0.417811
	C117	C	0.542332	0.750991	0.579896
	C118	C	0.447533	0.710556	0.645394
	C119	C	0.509730	0.832230	0.473426
	C120	C	0.460196	0.697126	0.356658
	C121	C	0.582230	0.760479	0.524674
	C122	C	0.410911	0.707605	0.719509
	C123	C	0.510770	0.870546	0.406077
	C124	C	0.457138	0.660451	0.282797
	C125	C	0.620740	0.761806	0.591094
	H126	H	0.370803	0.807930	0.675129
	H127	H	0.488985	0.829645	0.126419
	H128	H	0.558369	0.621712	0.320505
	H129	H	0.580893	0.739338	0.871533
	H130	H	0.435065	0.812944	0.544954
	H131	H	0.487805	0.762266	0.244805
	H132	H	0.563559	0.686056	0.450532
	H133	H	0.513188	0.737659	0.754813
	H134	H	0.468307	0.682558	0.634851
	H135	H	0.516037	0.833195	0.570924
	H136	H	0.432217	0.717914	0.367410
	H137	H	0.582863	0.766899	0.427215
	H138	H	0.403280	0.677588	0.765983
	H139	H	0.517828	0.901035	0.450756
	H140	H	0.427069	0.652819	0.236597
	H141	H	0.651027	0.769190	0.545737
	N142	N	0.345848	0.739416	0.807917
	N143	N	0.505201	0.909046	0.211714
	N144	N	0.489425	0.596250	0.190617
	N145	N	0.659892	0.756412	0.784436
	C146	C	0.000000	0.250000	0.500000
	C147	C	-0.006994	0.133219	0.264607
	C148	C	0.120595	0.252665	0.719980
	C149	C	-0.117636	0.242305	0.731679
	C150	C	0.003579	0.371253	0.282923
	C151	C	0.030702	0.142791	0.330635
	C152	C	0.080537	0.244835	0.775837
	C153	C	-0.106894	0.280762	0.670837
	C154	C	-0.004690	0.331441	0.226173
	C155	C	0.033411	0.179564	0.404465
	C156	C	0.042336	0.243773	0.707690
	C157	C	-0.070066	0.283573	0.597253
	C158	C	-0.006039	0.293045	0.293404
	C159	C	-0.001240	0.208504	0.416726
	C160	C	0.042085	0.250671	0.580918
	C161	C	-0.041748	0.248551	0.582189
	C162	C	0.000991	0.292332	0.420104
	C163	C	-0.039444	0.197533	0.354606
	C164	C	0.082230	0.259730	0.526574
	C165	C	-0.052874	0.210196	0.643342
	C166	C	0.010479	0.332230	0.475326
	C167	C	-0.042395	0.160911	0.280491
	C168	C	0.120546	0.260770	0.593923
	C169	C	-0.089549	0.207138	0.717203
	C170	C	0.011806	0.370740	0.408906
	H171	H	0.057930	0.120803	0.324871
	H172	H	0.079645	0.238985	0.873581
	H173	H	-0.128288	0.308369	0.679495
	H174	H	-0.010662	0.330893	0.128467
	H175	H	0.062944	0.185065	0.455046
	H176	H	0.012266	0.237805	0.755195
	H177	H	-0.063944	0.313559	0.549468
	H178	H	-0.012341	0.263188	0.245187
	H179	H	-0.067442	0.218307	0.365149
	H180	H	0.083195	0.266037	0.429076
	H181	H	-0.032086	0.182217	0.632590
	H182	H	0.016899	0.332863	0.572785
	H183	H	-0.072412	0.153280	0.234017
	H184	H	0.151035	0.267828	0.549244
	H185	H	-0.097181	0.177069	0.763403
	H186	H	0.019190	0.401027	0.454263
	N187	N	-0.010584	0.095848	0.192083
	N188	N	0.159046	0.255201	0.788286
	N189	N	-0.153750	0.239425	0.809383
	N190	N	0.006412	0.409892	0.215564
	C191	C	0.492531	0.463582	-0.075934
	C192	C	0.507454	0.536349	0.076208
	C193	C	0.534447	0.474105	-0.036237
	C194	C	0.465560	0.525929	0.036106
	C195	C	0.541794	0.509761	0.038306
	C196	C	0.458214	0.490275	-0.038449
	H197	H	0.425698	0.482712	-0.068564
	H198	H	0.574326	0.517392	0.068140
	H199	H	0.438941	0.546401	0.064726
	H200	H	0.561082	0.453695	-0.065088
	C201	C	0.484699	0.425794	-0.155533
	H202	H	0.450998	0.419842	-0.182646
	C203	C	0.515353	0.574349	0.154941
	H204	H	0.549085	0.580395	0.181584
	C205	C	0.503516	1.040774	0.941490
	C206	C	0.496378	0.959260	1.058641
	C207	C	0.483442	1.005671	0.882867
	C208	C	0.516608	0.994312	1.117071
	C209	C	0.479934	0.965712	0.940195
	C210	C	0.520121	1.034271	1.059737
	H211	H	0.535833	1.060957	1.106114
	H212	H	0.464328	0.938994	0.893680
	H213	H	0.529486	0.989500	1.208334
	H214	H	0.470655	1.010450	0.791491
	C215	C	0.507412	1.083212	0.880491
	H216	H	0.523609	1.108949	0.932517
	C217	C	0.492806	0.916711	1.119181
	H218	H	0.476775	0.890934	1.066898
	C219	C	0.290624	0.253968	0.059108
	C220	C	0.209413	0.245931	-0.059256
	C221	C	0.256374	0.231372	0.114322
	C222	C	0.243608	0.268677	-0.114252
	C223	C	0.216563	0.227421	0.056399
	C224	C	0.283418	0.272631	-0.056321
	H225	H	0.309437	0.290296	-0.100033
	H226	H	0.190508	0.209859	0.100264
	H227	H	0.238249	0.283152	-0.203330
	H228	H	0.261696	0.216983	0.203527
	C229	C	0.332898	0.258330	0.120767
	H230	H	0.357947	0.276553	0.071490
	C231	C	0.167017	0.241878	-0.120405
	H232	H	0.141921	0.223814	-0.070845
	C233	C	0.713475	0.242511	0.075505
	C234	C	0.786456	0.257477	-0.075781
	C235	C	0.724599	0.284548	0.038214
	C236	C	0.775434	0.215458	-0.038083
	C237	C	0.760360	0.291915	-0.035907
	C238	C	0.739675	0.208091	0.036051
	H239	H	0.731646	0.175478	0.064300
	H240	H	0.768458	0.324542	-0.063875
	H241	H	0.795525	0.188758	-0.068230
	H242	H	0.704571	0.311261	0.068593
	C243	C	0.675574	0.234652	0.154655
	H244	H	0.669139	0.200853	0.179834
	C245	C	0.824569	0.265393	-0.154060
	H246	H	0.831099	0.299219	-0.178768
	C247	C	0.500000	0.250000	0.500000
	C248	C	0.379265	0.246961	0.280425
	C249	C	0.616625	0.256636	0.264139
	C250	C	0.495254	0.129415	0.719883
	C251	C	0.508147	0.366685	0.735348
	C252	C	0.419405	0.254087	0.224177
	C253	C	0.606645	0.218727	0.328594
	C254	C	0.504643	0.169225	0.775313
	C255	C	0.469919	0.356832	0.672263
	C256	C	0.457604	0.255371	0.292306
	C257	C	0.569977	0.216132	0.402872
	C258	C	0.506066	0.207440	0.707280
	C259	C	0.466854	0.320152	0.598168
	C260	C	0.457814	0.249450	0.419486
	C261	C	0.541608	0.251149	0.417171
	C262	C	0.498949	0.207855	0.580599
	C263	C	0.501688	0.291636	0.582683
	C264	C	0.417696	0.240393	0.473953
	C265	C	0.552624	0.289337	0.355000
	C266	C	0.489497	0.167826	0.526139
	C267	C	0.540186	0.302523	0.643504
	C268	C	0.379381	0.239135	0.406611
	C269	C	0.589139	0.292178	0.280448
	C270	C	0.488095	0.129494	0.593375
	C271	C	0.543500	0.339046	0.717870
	H272	H	0.420584	0.258149	0.125744
	H273	H	0.627710	0.190920	0.318679
	H274	H	0.509914	0.170167	0.873315
	H275	H	0.442233	0.377998	0.683111
	H276	H	0.487766	0.260243	0.244240
	H277	H	0.563834	0.186237	0.451076
	H278	H	0.512174	0.237441	0.755009
	H279	H	0.436721	0.314127	0.551059
	H280	H	0.416720	0.234145	0.571499
	H281	H	0.531885	0.317347	0.365683
	H282	H	0.483212	0.166918	0.428606
	H283	H	0.568077	0.281685	0.631928
	H284	H	0.348939	0.231930	0.451383
	H285	H	0.596743	0.322121	0.233585
	H286	H	0.480795	0.099094	0.548500
	H287	H	0.573674	0.346543	0.763674
	N288	N	0.340653	0.244611	0.212863
	N289	N	0.654195	0.260053	0.192309
	N290	N	0.495183	0.090492	0.786352
	N291	N	0.512043	0.404261	0.806961
