data_Molecule from CHK

_cell_length_a		32.105610
_cell_length_b		32.117950
_cell_length_c		9.973622
_cell_angle_alpha	92.179772
_cell_angle_beta	87.706546
_cell_angle_gamma	97.106820
_symmetry_space_group_name_H-M	'P 1'
_symmetry_Int_Tables_number		1

loop_
	_symmetry_equiv_pos_as_xyz
	x,y,z

loop_
	_atom_site_label
	_atom_site_type_symbol
	_atom_site_fract_x
	_atom_site_fract_y
	_atom_site_fract_z
	C0	C	-0.005311	0.743256	0.501141
	C1	C	-0.016106	0.624724	0.721257
	C2	C	0.007905	0.857561	0.767443
	C3	C	-0.123356	0.733483	0.279222
	C4	C	0.109112	0.756644	0.234328
	C5	C	-0.048457	0.650322	0.725384
	C6	C	0.014068	0.859344	0.627675
	C7	C	-0.098070	0.700884	0.275822
	C8	C	0.110892	0.762287	0.374211
	C9	C	-0.044279	0.687718	0.656524
	C10	C	0.009733	0.822905	0.546328
	C11	C	-0.060862	0.704692	0.345452
	C12	C	0.074420	0.757832	0.455741
	C13	C	-0.007875	0.701467	0.579894
	C14	C	-0.000569	0.782911	0.599374
	C15	C	-0.047087	0.740896	0.422584
	C16	C	0.034396	0.747923	0.402793
	C17	C	0.023630	0.674784	0.572143
	C18	C	-0.004828	0.781315	0.739622
	C19	C	-0.073350	0.772760	0.428973
	C20	C	0.032812	0.744091	0.262514
	C21	C	0.019734	0.637355	0.640845
	C22	C	-0.000578	0.817690	0.821869
	C23	C	-0.110594	0.769222	0.359551
	C24	C	0.069217	0.748466	0.180092
	H25	H	-0.077086	0.640437	0.783017
	H26	H	0.022545	0.889564	0.582777
	H27	H	-0.108032	0.672366	0.218043
	H28	H	0.141128	0.770508	0.419072
	H29	H	-0.070011	0.706688	0.660611
	H30	H	0.014465	0.825250	0.438489
	H31	H	-0.042111	0.678798	0.341796
	H32	H	0.076750	0.762211	0.563642
	H33	H	0.051609	0.682741	0.509911
	H34	H	-0.011135	0.751276	0.786485
	H35	H	-0.065272	0.800703	0.490961
	H36	H	0.002759	0.738072	0.215772
	H37	H	0.044457	0.617193	0.630886
	H38	H	-0.003866	0.815522	0.930107
	H39	H	-0.130490	0.794174	0.368852
	H40	H	0.067054	0.745559	0.071829
	N41	N	-0.020895	0.586387	0.786939
	N42	N	0.012693	0.894039	0.850742
	N43	N	-0.161532	0.729048	0.212852
	N44	N	0.145563	0.761795	0.150717
	C45	C	0.290347	0.754599	-0.074852
	C46	C	0.214715	0.744716	0.083494
	C47	C	0.284048	0.724860	0.025988
	C48	C	0.221114	0.774610	-0.016859
	C49	C	0.246982	0.720010	0.103728
	C50	C	0.258176	0.779471	-0.094546
	H51	H	0.262578	0.802651	-0.171630
	H52	H	0.242606	0.696898	0.181025
	H53	H	0.196397	0.793892	-0.032512
	H54	H	0.308808	0.705643	0.041770
	C55	C	0.329541	0.759682	-0.158294
	H56	H	0.331734	0.783639	-0.234938
	C57	C	0.175469	0.739748	0.166754
	H58	H	0.173195	0.715994	0.244035
	C59	C	0.714421	0.747972	-0.074658
	C60	C	0.791710	0.752546	0.056034
	C61	C	0.747541	0.779508	-0.104233
	C62	C	0.758525	0.721128	0.086078
	C63	C	0.785437	0.781787	-0.040192
	C64	C	0.720623	0.718847	0.022019
	H65	H	0.695344	0.694426	0.046336
	H66	H	0.810674	0.806274	-0.064288
	H67	H	0.763130	0.698605	0.160758
	H68	H	0.742912	0.802101	-0.178661
	C69	C	0.674251	0.745444	-0.143371
	H70	H	0.650055	0.719645	-0.115625
	C71	C	0.831819	0.755302	0.125153
	H72	H	0.855844	0.781302	0.097785
	C73	C	-0.003597	0.461853	0.074814
	C74	C	0.001723	0.539350	-0.055341
	C75	C	0.027731	0.494943	0.106252
	C76	C	-0.029496	0.506202	-0.087204
	C77	C	0.030378	0.532938	0.042470
	C78	C	-0.032140	0.468197	-0.023415
	H79	H	-0.056394	0.442946	-0.049153
	H80	H	0.054701	0.558147	0.067996
	H81	H	-0.051567	0.510918	-0.163093
	H82	H	0.049871	0.490212	0.181912
	C83	C	-0.006461	0.421554	0.143123
	H84	H	-0.032023	0.397352	0.113793
	C85	C	0.004864	0.579579	-0.124097
	H86	H	0.030694	0.603565	-0.095287
	C87	C	0.002659	0.038471	0.074817
	C88	C	-0.005508	-0.037136	-0.083125
	C89	C	-0.026856	0.031595	-0.026403
	C90	C	0.024198	-0.030143	0.017501
	C91	C	-0.030862	-0.005453	-0.103939
	C92	C	0.028219	0.006914	0.094997
	H93	H	0.051237	0.011773	0.172382
	H94	H	-0.053835	-0.010283	-0.181466
	H95	H	0.043982	-0.054405	0.033572
	H96	H	-0.046602	0.055881	-0.042586
	C97	C	0.006661	0.077597	0.158358
	H98	H	0.030570	0.080397	0.235117
	C99	C	-0.009719	-0.076389	-0.166019
	H100	H	-0.033491	-0.079123	-0.243209
	C101	C	0.508479	0.757322	0.497851
	C102	C	0.395570	0.742845	0.771065
	C103	C	0.518925	0.877582	0.287299
	C104	C	0.492847	0.643539	0.229721
	C105	C	0.629615	0.767971	0.702913
	C106	C	0.393017	0.737838	0.631203
	C107	C	0.550391	0.850968	0.274896
	C108	C	0.488266	0.641520	0.369845
	C109	C	0.603071	0.799487	0.715754
	C110	C	0.429038	0.742698	0.547727
	C111	C	0.546388	0.813104	0.341185
	C112	C	0.493452	0.677818	0.451651
	C113	C	0.564942	0.795424	0.651155
	C114	C	0.469360	0.752477	0.598560
	C115	C	0.510671	0.799457	0.421084
	C116	C	0.503145	0.717906	0.398820
	C117	C	0.550833	0.759490	0.573273
	C118	C	0.471752	0.755326	0.738763
	C119	C	0.479178	0.826137	0.431795
	C120	C	0.505525	0.719776	0.258439
	C121	C	0.577583	0.728074	0.561371
	C122	C	0.435784	0.750604	0.823163
	C123	C	0.482947	0.864082	0.365978
	C124	C	0.500476	0.683522	0.175698
	C125	C	0.615818	0.731920	0.625373
	H126	H	0.362540	0.729672	0.587882
	H127	H	0.578418	0.860659	0.214118
	H128	H	0.480205	0.611239	0.414708
	H129	H	0.613100	0.827665	0.775099
	H130	H	0.426113	0.738621	0.439947
	H131	H	0.571739	0.793674	0.332496
	H132	H	0.489736	0.675302	0.559692
	H133	H	0.545595	0.820836	0.659968
	H134	H	0.502099	0.760964	0.783775
	H135	H	0.451423	0.817889	0.494760
	H136	H	0.511077	0.749933	0.212040
	H137	H	0.569089	0.700257	0.499203
	H138	H	0.438544	0.752898	0.931285
	H139	H	0.458196	0.884166	0.378015
	H140	H	0.502430	0.685874	0.067388
	H141	H	0.635891	0.707179	0.612719
	N142	N	0.359448	0.737501	0.856246
	N143	N	0.522778	0.915481	0.219467
	N144	N	0.487288	0.607112	0.146250
	N145	N	0.667731	0.771877	0.769373
	C146	C	0.004622	0.255371	0.502037
	C147	C	-0.012264	0.142940	0.228206
	C148	C	0.125336	0.265682	0.709349
	C149	C	-0.108986	0.237566	0.771672
	C150	C	0.015407	0.376717	0.297680
	C151	C	-0.016186	0.140184	0.368254
	C152	C	0.098939	0.297337	0.721280
	C153	C	-0.111120	0.234005	0.631455
	C154	C	0.047174	0.350439	0.286049
	C155	C	-0.010701	0.176062	0.451876
	C156	C	0.060908	0.293342	0.656150
	C157	C	-0.074876	0.239730	0.549205
	C158	C	0.043052	0.312234	0.350352
	C159	C	-0.000342	0.216367	0.401203
	C160	C	0.046742	0.257347	0.578608
	C161	C	-0.034797	0.249979	0.601481
	C162	C	0.006814	0.297767	0.426688
	C163	C	0.003214	0.218860	0.261061
	C164	C	0.073283	0.225735	0.567968
	C165	C	-0.032917	0.253120	0.741782
	C166	C	-0.024883	0.324216	0.437205
	C167	C	-0.002215	0.183043	0.176477
	C168	C	0.111424	0.229511	0.632537
	C169	C	-0.069107	0.247449	0.825001
	C170	C	-0.020975	0.362539	0.373504
	H171	H	-0.024598	0.109706	0.411523
	H172	H	0.108969	0.325532	0.780543
	H173	H	-0.141405	0.225722	0.586949
	H174	H	0.075542	0.360688	0.227612
	H175	H	-0.014611	0.173016	0.559695
	H176	H	0.041608	0.318794	0.664744
	H177	H	-0.077454	0.236139	0.441196
	H178	H	0.068578	0.293016	0.341974
	H179	H	0.009891	0.249187	0.216197
	H180	H	0.064693	0.197819	0.506352
	H181	H	-0.002785	0.259690	0.787802
	H182	H	-0.052985	0.315395	0.498017
	H183	H	0.000879	0.185871	0.068420
	H184	H	0.131351	0.204622	0.620946
	H185	H	-0.066754	0.250250	0.933221
	H186	H	-0.045943	0.382378	0.385053
	N187	N	-0.016274	0.106839	0.143142
	N188	N	0.163428	0.269594	0.775918
	N189	N	-0.145478	0.233461	0.855366
	N190	N	0.019479	0.414950	0.231722
	C191	C	0.495109	0.462040	-0.076986
	C192	C	0.504516	0.537906	0.079597
	C193	C	0.525157	0.468900	0.022624
	C194	C	0.474554	0.531107	-0.020285
	C195	C	0.529776	0.506069	0.099461
	C196	C	0.469929	0.493922	-0.097125
	H197	H	0.446683	0.489186	-0.173831
	H198	H	0.553116	0.510843	0.175870
	H199	H	0.455013	0.555592	-0.036120
	H200	H	0.544798	0.444482	0.038242
	C201	C	0.490644	0.422830	-0.160143
	H202	H	0.466697	0.420185	-0.236743
	C203	C	0.509539	0.577312	0.161633
	H204	H	0.533777	0.579913	0.237319
	C205	C	0.502557	1.038935	0.931064
	C206	C	0.498582	0.961808	1.062778
	C207	C	0.471283	1.005566	0.901895
	C208	C	0.529991	0.995100	1.091427
	C209	C	0.469295	0.967749	0.966444
	C210	C	0.531975	1.032918	1.026893
	H211	H	0.556358	1.058294	1.050305
	H212	H	0.444969	0.942339	0.942825
	H213	H	0.552703	0.990677	1.165617
	H214	H	0.448622	1.009960	0.827515
	C215	C	0.504903	1.078973	0.861491
	H216	H	0.530720	1.103233	0.888275
	C217	C	0.496283	0.921749	1.132205
	H218	H	0.470406	0.897520	1.105710
	C219	C	0.286768	0.251314	0.066712
	C220	C	0.209578	0.246577	-0.064716
	C221	C	0.253057	0.220820	0.100066
	C222	C	0.243224	0.277196	-0.097622
	C223	C	0.215207	0.218458	0.035663
	C224	C	0.281073	0.279551	-0.033244
	H225	H	0.306721	0.303314	-0.059962
	H226	H	0.189524	0.194762	0.062598
	H227	H	0.239048	0.299004	-0.174962
	H228	H	0.257204	0.199078	0.177630
	C229	C	0.326833	0.254096	0.136166
	H230	H	0.351358	0.279312	0.106099
	C231	C	0.169450	0.243968	-0.133744
	H232	H	0.144839	0.218859	-0.103475
	C233	C	0.709864	0.245092	0.077430
	C234	C	0.786018	0.252717	-0.078525
	C235	C	0.717543	0.274943	-0.022781
	C236	C	0.778416	0.222984	0.022064
	C237	C	0.754860	0.278693	-0.099306
	C238	C	0.741097	0.219237	0.098602
	H239	H	0.735735	0.196139	0.175808
	H240	H	0.760268	0.301873	-0.176250
	H241	H	0.802376	0.202897	0.038654
	H242	H	0.693632	0.295108	-0.039147
	C243	C	0.670486	0.241431	0.160102
	H244	H	0.667278	0.217610	0.237324
	C245	C	0.825531	0.256653	-0.160515
	H246	H	0.828779	0.280648	-0.237195
	C247	C	0.491938	0.244072	0.499763
	C248	C	0.370938	0.232819	0.293768
	C249	C	0.605180	0.260928	0.228274
	C250	C	0.482151	0.123271	0.707006
	C251	C	0.509168	0.357210	0.770595
	C252	C	0.397432	0.201242	0.282443
	C253	C	0.607501	0.265143	0.368343
	C254	C	0.450354	0.149508	0.719202
	C255	C	0.512626	0.359614	0.630394
	C256	C	0.435537	0.205525	0.347199
	C257	C	0.571356	0.259829	0.451153
	C258	C	0.454161	0.187549	0.654007
	C259	C	0.507039	0.323518	0.547756
	C260	C	0.449668	0.241724	0.423844
	C261	C	0.531190	0.249447	0.399620
	C262	C	0.490094	0.201879	0.576051
	C263	C	0.496958	0.283332	0.599590
	C264	C	0.423004	0.273234	0.434014
	C265	C	0.529146	0.245422	0.259475
	C266	C	0.521816	0.175464	0.564922
	C267	C	0.493851	0.281193	0.739858
	C268	C	0.384796	0.269180	0.369758
	C269	C	0.565232	0.250726	0.175697
	C270	C	0.518229	0.137314	0.629550
	C271	C	0.499426	0.317224	0.823463
	H272	H	0.387379	0.172845	0.224184
	H273	H	0.637869	0.273462	0.412271
	H274	H	0.422158	0.139300	0.778522
	H275	H	0.520678	0.389995	0.586165
	H276	H	0.454828	0.180057	0.339538
	H277	H	0.574098	0.263694	0.559048
	H278	H	0.428530	0.206636	0.662346
	H279	H	0.510443	0.326311	0.439750
	H280	H	0.431558	0.301297	0.494992
	H281	H	0.498960	0.238544	0.213963
	H282	H	0.549678	0.184168	0.502880
	H283	H	0.487444	0.250982	0.785596
	H284	H	0.364788	0.294009	0.380931
	H285	H	0.562741	0.247337	0.067609
	H286	H	0.543205	0.117501	0.617445
	H287	H	0.496710	0.314655	0.931657
	N288	N	0.332844	0.228663	0.227110
	N289	N	0.641560	0.264687	0.144090
	N290	N	0.478442	0.085248	0.774125
	N291	N	0.513436	0.393463	0.854894
