data_Molecule from CHK

_cell_length_a		39.324192
_cell_length_b		39.318631
_cell_length_c		7.116388
_cell_angle_alpha	94.198507
_cell_angle_beta	85.643247
_cell_angle_gamma	92.788625
_symmetry_space_group_name_H-M	'P 1'
_symmetry_Int_Tables_number		1

loop_
	_symmetry_equiv_pos_as_xyz
	x,y,z

loop_
	_atom_site_label
	_atom_site_type_symbol
	_atom_site_fract_x
	_atom_site_fract_y
	_atom_site_fract_z
	C0	C	-0.011745	0.739394	0.625569
	C1	C	-0.011103	0.644191	0.926836
	C2	C	-0.004377	0.833366	1.011834
	C3	C	-0.105566	0.739519	0.314379
	C4	C	0.082441	0.742437	0.239977
	C5	C	0.006834	0.674160	0.988429
	C6	C	-0.035682	0.821584	0.943740
	C7	C	-0.073044	0.745258	0.223968
	C8	C	0.070276	0.712027	0.318249
	C9	C	0.005970	0.704253	0.896540
	C10	C	-0.038093	0.792191	0.821883
	C11	C	-0.043537	0.745421	0.321327
	C12	C	0.040472	0.710923	0.438127
	C13	C	-0.012522	0.706243	0.737456
	C14	C	-0.009817	0.772610	0.763655
	C15	C	-0.044626	0.738973	0.512608
	C16	C	0.021327	0.739864	0.486248
	C17	C	-0.030460	0.676152	0.676633
	C18	C	0.021462	0.785041	0.830210
	C19	C	-0.077142	0.731407	0.599608
	C20	C	0.033714	0.770149	0.407550
	C21	C	-0.030320	0.646197	0.770352
	C22	C	0.024235	0.814717	0.949035
	C23	C	-0.106776	0.731565	0.503627
	C24	C	0.063636	0.771521	0.289450
	H25	H	0.022468	0.674099	1.106914
	H26	H	-0.058469	0.835310	0.988323
	H27	H	-0.070331	0.749194	0.074790
	H28	H	0.083915	0.688864	0.282868
	H29	H	0.020478	0.726424	0.950142
	H30	H	-0.062683	0.784877	0.770206
	H31	H	-0.019253	0.750186	0.243899
	H32	H	0.032029	0.686970	0.495656
	H33	H	-0.044513	0.675842	0.551312
	H34	H	0.044358	0.771406	0.786405
	H35	H	-0.079146	0.724905	0.745525
	H36	H	0.019561	0.793094	0.440109
	H37	H	-0.045040	0.623653	0.721525
	H38	H	0.048926	0.823960	0.994063
	H39	H	-0.131425	0.725141	0.574198
	H40	H	0.072961	0.795474	0.234481
	N41	N	-0.010928	0.613297	1.013997
	N42	N	-0.000515	0.863411	1.128965
	N43	N	-0.135833	0.738945	0.221218
	N44	N	0.112712	0.745177	0.123374
	C45	C	0.327167	0.753555	0.440146
	C46	C	0.327507	0.744891	0.627688
	C47	C	0.297378	0.740772	0.740899
	C48	C	0.265312	0.745047	0.672635
	C49	C	0.265183	0.753568	0.483911
	C50	C	0.295322	0.757772	0.370552
	C51	C	0.233019	0.740915	0.795330
	C52	C	0.203911	0.758853	0.767626
	C53	C	0.173888	0.755243	0.882386
	C54	C	0.171444	0.733642	1.031623
	C55	C	0.200353	0.715717	1.060754
	C56	C	0.230309	0.719184	0.945013
	H57	H	0.151819	0.769427	0.858352
	H58	H	0.294351	0.764533	0.226231
	H59	H	0.199038	0.698714	1.174576
	H60	H	0.351927	0.741517	0.683732
	H61	H	0.204930	0.776537	0.657341
	H62	H	0.241077	0.756377	0.423599
	H63	H	0.298914	0.734665	0.885752
	H64	H	0.251745	0.704144	0.968792
	C65	C	0.359226	0.757478	0.320252
	H66	H	0.356890	0.763726	0.173905
	C67	C	0.139690	0.730315	1.154828
	H68	H	0.140666	0.714557	1.275389
	C69	C	0.677091	0.747404	0.477018
	C70	C	0.698578	0.776940	0.482524
	C71	C	0.727894	0.778883	0.581350
	C72	C	0.737181	0.751408	0.679753
	C73	C	0.715540	0.721836	0.673292
	C74	C	0.686232	0.719848	0.574380
	C75	C	0.768689	0.753373	0.785222
	C76	C	0.770180	0.736600	0.952232
	C77	C	0.799757	0.737903	1.048629
	C78	C	0.829233	0.756309	0.983663
	C79	C	0.827765	0.773587	0.818926
	C80	C	0.798282	0.771977	0.721630
	H81	H	0.800320	0.724715	1.176941
	H82	H	0.670075	0.696720	0.571845
	H83	H	0.850244	0.787880	0.765253
	H84	H	0.691817	0.798500	0.408361
	H85	H	0.747607	0.722899	1.009396
	H86	H	0.722239	0.699872	0.743960
	H87	H	0.743476	0.802378	0.585765
	H88	H	0.798418	0.784588	0.591130
	C89	C	0.646032	0.745253	0.372047
	H90	H	0.630968	0.720975	0.374028
	C91	C	0.860794	0.757452	1.084036
	H92	H	0.881261	0.775188	1.032692
	C93	C	-0.004015	0.422692	0.741539
	C94	C	0.019264	0.449854	0.783355
	C95	C	0.019745	0.479896	0.691110
	C96	C	-0.002958	0.484277	0.552059
	C97	C	-0.026041	0.456802	0.509751
	C98	C	-0.026621	0.426780	0.602308
	C99	C	-0.002974	0.516791	0.456026
	C100	C	-0.011608	0.517382	0.267967
	C101	C	-0.012442	0.547893	0.181035
	C102	C	-0.004692	0.579347	0.277857
	C103	C	0.004533	0.578877	0.464186
	C104	C	0.005272	0.548408	0.551117
	H105	H	-0.019447	0.547722	0.036546
	H106	H	-0.044721	0.406078	0.566607
	H107	H	0.011280	0.602742	0.541230
	H108	H	0.037088	0.447017	0.889678
	H109	H	-0.017155	0.493531	0.187557
	H110	H	-0.044272	0.459329	0.405394
	H111	H	0.038530	0.500060	0.724804
	H112	H	0.011667	0.549285	0.696870
	C113	C	-0.004981	0.391024	0.841450
	H114	H	-0.025290	0.372027	0.805540
	C115	C	-0.005681	0.611937	0.188197
	H116	H	-0.001948	0.634992	0.282359
	C117	C	0.009147	0.076865	0.821179
	C118	C	0.000602	0.077703	0.633839
	C119	C	-0.003147	0.047869	0.518282
	C120	C	0.001350	0.015600	0.583900
	C121	C	0.009918	0.014985	0.772166
	C122	C	0.013770	0.044832	0.887860
	C123	C	-0.002831	-0.016406	0.459408
	C124	C	0.014842	-0.045777	0.485451
	C125	C	0.010860	-0.075621	0.370099
	C126	C	-0.010869	-0.077608	0.221896
	C127	C	-0.028464	-0.048408	0.194125
	C128	C	-0.024641	-0.018648	0.310497
	H129	H	0.024796	-0.097923	0.393024
	H130	H	0.020477	0.043469	1.031920
	H131	H	-0.045541	-0.049353	0.081033
	H132	H	-0.003054	0.102275	0.579956
	H133	H	0.032576	-0.045136	0.595058
	H134	H	0.012974	-0.009285	0.830479
	H135	H	-0.009224	0.049817	0.373790
	H136	H	-0.039502	0.002985	0.287894
	C137	C	0.012212	0.108576	0.944274
	H138	H	0.018540	0.105892	1.090083
	C139	C	-0.014857	-0.109216	0.098808
	H140	H	-0.030773	-0.107862	-0.020590
	C141	C	0.512508	0.762792	0.879913
	C142	C	0.418464	0.756515	1.265065
	C143	C	0.512993	0.856595	0.567147
	C144	C	0.508609	0.668675	0.496236
	C145	C	0.607140	0.767263	1.185443
	C146	C	0.429101	0.787151	1.185144
	C147	C	0.503843	0.824457	0.482226
	C148	C	0.539220	0.680540	0.571998
	C149	C	0.575821	0.755580	1.270470
	C150	C	0.458727	0.789326	1.064460
	C151	C	0.503249	0.794997	0.580725
	C152	C	0.540654	0.710185	0.692540
	C153	C	0.546080	0.753768	1.174353
	C154	C	0.479377	0.761354	1.018674
	C155	C	0.512886	0.795643	0.766228
	C156	C	0.511850	0.729466	0.743165
	C157	C	0.545660	0.764452	0.991224
	C158	C	0.467913	0.730599	1.095473
	C159	C	0.523051	0.827756	0.848576
	C160	C	0.481222	0.716914	0.669393
	C161	C	0.577031	0.776733	0.908307
	C162	C	0.438124	0.728106	1.213999
	C163	C	0.523161	0.857419	0.752107
	C164	C	0.479498	0.687119	0.551019
	C165	C	0.606970	0.778274	1.002700
	H166	H	0.414032	0.809424	1.219207
	H167	H	0.497389	0.822093	0.336688
	H168	H	0.562058	0.666471	0.534445
	H169	H	0.574636	0.748049	1.414164
	H170	H	0.465525	0.813343	1.003660
	H171	H	0.495164	0.771085	0.509884
	H172	H	0.564732	0.718146	0.749405
	H173	H	0.522846	0.743840	1.245065
	H174	H	0.482680	0.708108	1.061037
	H175	H	0.531106	0.829445	0.991434
	H176	H	0.458247	0.730853	0.705891
	H177	H	0.577975	0.785267	0.766463
	H178	H	0.429569	0.703846	1.267762
	H179	H	0.531352	0.881779	0.819427
	H180	H	0.455331	0.677658	0.499874
	H181	H	0.630718	0.788104	0.935149
	N182	N	0.388296	0.753234	1.382340
	N183	N	0.514343	0.886738	0.471964
	N184	N	0.506048	0.638573	0.378520
	N185	N	0.637165	0.769950	1.281728
	C186	C	0.013003	0.263011	0.378829
	C187	C	0.009438	0.167484	0.006534
	C188	C	0.106902	0.270357	0.691599
	C189	C	-0.082347	0.255678	0.752546
	C190	C	0.015472	0.356145	0.058946
	C191	C	0.040218	0.180311	0.076731
	C192	C	0.075904	0.257158	0.773058
	C193	C	-0.071190	0.286678	0.678268
	C194	C	0.004925	0.324135	-0.022173
	C195	C	0.041541	0.210354	0.194134
	C196	C	0.046383	0.254532	0.674882
	C197	C	-0.041200	0.289169	0.560689
	C198	C	0.003757	0.294902	0.078545
	C199	C	0.012651	0.229616	0.242497
	C200	C	0.046051	0.264960	0.491164
	C201	C	-0.020272	0.261370	0.516355
	C202	C	0.013256	0.295770	0.264394
	C203	C	-0.017878	0.216786	0.168577
	C204	C	0.077367	0.277589	0.409296
	C205	C	-0.031469	0.230625	0.594146
	C206	C	0.023527	0.327945	0.345484
	C207	C	-0.019505	0.186579	0.053538
	C208	C	0.107077	0.280027	0.505894
	C209	C	-0.061616	0.227807	0.709497
	C210	C	0.024315	0.357382	0.246615
	H211	H	0.063161	0.166382	0.039736
	H212	H	0.074645	0.249634	0.916797
	H213	H	-0.086407	0.308856	0.711979
	H214	H	-0.001547	0.321560	-0.167688
	H215	H	0.065641	0.218769	0.249348
	H216	H	0.023261	0.244112	0.744405
	H217	H	-0.034253	0.313319	0.501693
	H218	H	-0.004703	0.270991	0.009143
	H219	H	-0.040868	0.230817	0.202504
	H220	H	0.078449	0.285722	0.266561
	H221	H	-0.016265	0.208365	0.562435
	H222	H	0.031211	0.329862	0.489116
	H223	H	-0.043536	0.177120	0.000602
	H224	H	0.130837	0.289854	0.438460
	H225	H	-0.069784	0.203619	0.765425
	H226	H	0.032369	0.381828	0.313493
	N227	N	0.007353	0.137778	-0.114886
	N228	N	0.137095	0.272319	0.786249
	N229	N	-0.112085	0.252495	0.873506
	N230	N	0.016051	0.386300	-0.035618
	C231	C	0.487733	0.423307	0.717358
	C232	C	0.509161	0.425151	0.866918
	C233	C	0.512835	0.454861	0.983761
	C234	C	0.495084	0.484198	0.958087
	C235	C	0.473355	0.481999	0.808798
	C236	C	0.469832	0.452381	0.691020
	C237	C	0.499158	0.516198	1.082725
	C238	C	0.494826	0.548427	1.016195
	C239	C	0.498633	0.578323	1.131081
	C240	C	0.506990	0.577597	1.318824
	C241	C	0.511594	0.545616	1.386206
	C242	C	0.507695	0.515693	1.271104
	H243	H	0.495152	0.602857	1.076301
	H244	H	0.452840	0.451482	0.577544
	H245	H	0.518319	0.544358	1.530304
	H246	H	0.523182	0.402879	0.889357
	H247	H	0.488886	0.550297	0.871407
	H248	H	0.458341	0.503563	0.786931
	H249	H	0.530408	0.455443	1.094144
	H250	H	0.510738	0.491459	1.329840
	C251	C	0.484054	0.391884	0.592508
	H252	H	0.468213	0.393358	0.472870
	C253	C	0.510505	0.609483	1.440101
	H254	H	0.516831	0.607028	1.586108
	C255	C	0.495661	1.079918	-0.217382
	C256	C	0.487955	1.048498	-0.314661
	C257	C	0.488822	1.017944	-0.228213
	C258	C	0.497321	1.017279	-0.039954
	C259	C	0.505483	1.048869	0.055673
	C260	C	0.504717	1.079387	-0.030775
	C261	C	0.497077	0.984742	0.056092
	C262	C	0.519409	0.980285	0.196888
	C263	C	0.518522	0.950272	0.289673
	C264	C	0.495148	0.923247	0.246871
	C265	C	0.473100	0.927304	0.104860
	C266	C	0.474080	0.957294	0.011837
	H267	H	0.536032	0.947384	0.397526
	H268	H	0.511285	1.103241	0.046917
	H269	H	0.455051	0.906643	0.067704
	H270	H	0.480946	1.048388	-0.459112
	H271	H	0.538198	1.000377	0.231745
	H272	H	0.511758	1.049699	0.201607
	H273	H	0.483321	0.994130	-0.309045
	H274	H	0.456192	0.959816	-0.094328
	C275	C	0.494056	1.112568	-0.305634
	H276	H	0.497535	1.135601	-0.210948
	C277	C	0.493714	0.891604	0.347142
	H278	H	0.473542	0.872613	0.308873
	C279	C	0.329459	0.255540	0.481468
	C280	C	0.299952	0.237003	0.544807
	C281	C	0.270365	0.236089	0.448661
	C282	C	0.268910	0.253361	0.283330
	C283	C	0.298587	0.271950	0.220813
	C284	C	0.328090	0.273146	0.317802
	C285	C	0.237414	0.251805	0.177866
	C286	C	0.228102	0.279723	0.083130
	C287	C	0.198774	0.278210	-0.015475
	C288	C	0.177345	0.248651	-0.024874
	C289	C	0.186427	0.220713	0.069587
	C290	C	0.215738	0.222276	0.168399
	H291	H	0.191983	0.300116	-0.086660
	H292	H	0.350645	0.287411	0.264869
	H293	H	0.170234	0.197613	0.064731
	H294	H	0.300488	0.223430	0.671807
	H295	H	0.243677	0.303212	0.090393
	H296	H	0.298757	0.284870	0.091302
	H297	H	0.247758	0.222294	0.504683
	H298	H	0.222410	0.200028	0.236673
	C299	C	0.361129	0.256007	0.580577
	H300	H	0.381730	0.273661	0.529971
	C301	C	0.146095	0.247092	-0.128134
	H302	H	0.131023	0.222804	-0.129042
	C303	C	0.672312	0.234287	0.539505
	C304	C	0.674448	0.255654	0.389272
	C305	C	0.704259	0.259089	0.272581
	C306	C	0.733426	0.241135	0.298927
	C307	C	0.730960	0.219494	0.449001
	C308	C	0.701222	0.216211	0.566719
	C309	C	0.765472	0.245022	0.173865
	C310	C	0.797714	0.240595	0.239629
	C311	C	0.827609	0.244497	0.124166
	C312	C	0.826845	0.253022	-0.063367
	C313	C	0.794837	0.257586	-0.130137
	C314	C	0.764938	0.253592	-0.014551
	H315	H	0.852171	0.241010	0.178285
	H316	H	0.700093	0.199269	0.680780
	H317	H	0.793537	0.264392	-0.274148
	H318	H	0.652331	0.269844	0.366198
	H319	H	0.799581	0.234535	0.384291
	H320	H	0.752406	0.204376	0.471564
	H321	H	0.705054	0.276656	0.161810
	H322	H	0.740698	0.256614	-0.072945
	C323	C	0.640728	0.231011	0.664118
	H324	H	0.641927	0.215429	0.785241
	C325	C	0.858630	0.256928	-0.185533
	H326	H	0.855901	0.263302	-0.331293
	C327	C	0.488002	0.239414	0.125781
	C328	C	0.487356	0.145103	0.436113
	C329	C	0.495157	0.334880	0.500067
	C330	C	0.394696	0.236777	-0.191968
	C331	C	0.583686	0.243184	-0.246907
	C332	C	0.506347	0.174744	0.492322
	C333	C	0.463727	0.322270	0.436946
	C334	C	0.427181	0.243891	-0.279580
	C335	C	0.570955	0.212487	-0.173969
	C336	C	0.505762	0.204613	0.398141
	C337	C	0.461380	0.292434	0.318501
	C338	C	0.456521	0.244778	-0.180317
	C339	C	0.540717	0.211149	-0.057728
	C340	C	0.487205	0.206430	0.239106
	C341	C	0.489702	0.272755	0.263033
	C342	C	0.455239	0.238739	0.011589
	C343	C	0.521196	0.239916	-0.012542
	C344	C	0.469339	0.176248	0.179095
	C345	C	0.520890	0.285356	0.330105
	C346	C	0.422689	0.230980	0.097572
	C347	C	0.533493	0.270190	-0.091714
	C348	C	0.469109	0.146559	0.275437
	C349	C	0.523602	0.315454	0.445547
	C350	C	0.393217	0.230293	-0.000382
	C351	C	0.563860	0.271810	-0.205972
	H352	H	0.522162	0.174732	0.610120
	H353	H	0.440905	0.336044	0.479911
	H354	H	0.430086	0.247840	-0.428739
	H355	H	0.584850	0.189439	-0.207741
	H356	H	0.520669	0.226683	0.449481
	H357	H	0.436813	0.284835	0.267347
	H358	H	0.480820	0.250050	-0.256471
	H359	H	0.532216	0.187158	-0.000801
	H360	H	0.455546	0.175684	0.052722
	H361	H	0.543789	0.271554	0.289075
	H362	H	0.420525	0.224952	0.244265
	H363	H	0.518928	0.292940	-0.062322
	H364	H	0.454603	0.123880	0.226498
	H365	H	0.548175	0.324604	0.492722
	H366	H	0.368509	0.224042	0.070054
	H367	H	0.572905	0.295682	-0.262955
	N368	N	0.488468	0.114027	0.520667
	N369	N	0.498638	0.364540	0.620764
	N370	N	0.364403	0.237034	-0.284187
	N371	N	0.613631	0.245776	-0.366399
