data_Molecule from CHK

_cell_length_a		39.908836
_cell_length_b		39.837395
_cell_length_c		6.945160
_cell_angle_alpha	91.898131
_cell_angle_beta	88.075421
_cell_angle_gamma	94.224995
_symmetry_space_group_name_H-M	'P 1'
_symmetry_Int_Tables_number		1

loop_
	_symmetry_equiv_pos_as_xyz
	x,y,z

loop_
	_atom_site_label
	_atom_site_type_symbol
	_atom_site_fract_x
	_atom_site_fract_y
	_atom_site_fract_z
	C0	C	-0.004418	0.745963	0.622859
	C1	C	-0.005199	0.651295	0.945671
	C2	C	0.001105	0.840254	0.985920
	C3	C	-0.099119	0.745625	0.302600
	C4	C	0.089574	0.750920	0.258216
	C5	C	0.006617	0.682346	1.028928
	C6	C	-0.028918	0.827964	0.900425
	C7	C	-0.068162	0.757497	0.218886
	C8	C	0.077255	0.720963	0.344934
	C9	C	0.006567	0.712309	0.929784
	C10	C	-0.030654	0.798219	0.787900
	C11	C	-0.038188	0.757285	0.317180
	C12	C	0.047613	0.719417	0.457973
	C13	C	-0.005572	0.713153	0.743558
	C14	C	-0.002930	0.778873	0.755230
	C15	C	-0.037212	0.744803	0.502634
	C16	C	0.028384	0.747270	0.489931
	C17	C	-0.018400	0.682179	0.663335
	C18	C	0.027093	0.791568	0.838858
	C19	C	-0.068139	0.732172	0.583883
	C20	C	0.041118	0.777234	0.405182
	C21	C	-0.018546	0.652237	0.761781
	C22	C	0.029117	0.821477	0.949682
	C23	C	-0.098095	0.732187	0.486306
	C24	C	0.070930	0.779070	0.293824
	H25	H	0.016479	0.683750	1.172004
	H26	H	-0.051541	0.841138	0.923727
	H27	H	-0.066848	0.767551	0.076187
	H28	H	0.090324	0.698236	0.322271
	H29	H	0.016472	0.735374	0.999896
	H30	H	-0.054303	0.790280	0.723155
	H31	H	-0.015199	0.767239	0.246750
	H32	H	0.039665	0.695811	0.523696
	H33	H	-0.028180	0.681508	0.519387
	H34	H	0.049430	0.777876	0.814777
	H35	H	-0.068750	0.722342	0.727769
	H36	H	0.027550	0.799683	0.428879
	H37	H	-0.029237	0.628923	0.696603
	H38	H	0.052895	0.831094	1.007956
	H39	H	-0.121359	0.721561	0.552067
	H40	H	0.080580	0.802811	0.234680
	N41	N	-0.005505	0.620110	1.033523
	N42	N	0.004909	0.870333	1.096334
	N43	N	-0.130291	0.745327	0.215363
	N44	N	0.119590	0.754549	0.147451
	C45	C	0.323627	0.755757	0.423556
	C46	C	0.324296	0.743236	0.609734
	C47	C	0.295395	0.740142	0.727159
	C48	C	0.264258	0.749209	0.664125
	C49	C	0.263728	0.761563	0.476700
	C50	C	0.292693	0.764853	0.359349
	C51	C	0.233280	0.745714	0.790721
	C52	C	0.207292	0.767498	0.778620
	C53	C	0.178423	0.764138	0.896514
	C54	C	0.174084	0.738828	1.032651
	C55	C	0.199976	0.717131	1.046531
	C56	C	0.228802	0.720489	0.928389
	H57	H	0.158685	0.781200	0.884287
	H58	H	0.291448	0.774408	0.215615
	H59	H	0.197231	0.697352	1.150614
	H60	H	0.348028	0.736118	0.661761
	H61	H	0.209950	0.787779	0.677825
	H62	H	0.240114	0.768051	0.420429
	H63	H	0.297209	0.731050	0.871417
	H64	H	0.247840	0.702688	0.940021
	C65	C	0.354496	0.758804	0.300227
	H66	H	0.352476	0.770425	0.160254
	C67	C	0.143364	0.734973	1.156829
	H68	H	0.142572	0.714376	1.258346
	C69	C	0.667717	0.747994	0.550382
	C70	C	0.694399	0.769301	0.478149
	C71	C	0.725709	0.771455	0.561827
	C72	C	0.732180	0.752148	0.720843
	C73	C	0.705122	0.731041	0.793215
	C74	C	0.673690	0.729084	0.710837
	C75	C	0.766214	0.753517	0.806210
	C76	C	0.770727	0.744387	0.997240
	C77	C	0.802538	0.744704	1.073883
	C78	C	0.831546	0.754583	0.964474
	C79	C	0.827278	0.764387	0.775341
	C80	C	0.795500	0.763635	0.698147
	H81	H	0.805321	0.737117	1.220644
	H82	H	0.653444	0.712531	0.770255
	H83	H	0.849197	0.772444	0.687634
	H84	H	0.690145	0.784367	0.355201
	H85	H	0.749050	0.737347	1.089094
	H86	H	0.708773	0.715260	0.913641
	H87	H	0.745215	0.788959	0.503818
	H88	H	0.793650	0.770430	0.549449
	C89	C	0.634767	0.745000	0.458242
	H90	H	0.615386	0.728263	0.528746
	C91	C	0.865346	0.755051	1.045483
	H92	H	0.886078	0.764104	0.948677
	C93	C	-0.000752	0.417882	0.698696
	C94	C	0.020007	0.444914	0.771905
	C95	C	0.021700	0.476312	0.688663
	C96	C	0.002448	0.482534	0.529127
	C97	C	-0.018158	0.455145	0.456046
	C98	C	-0.019641	0.423624	0.537934
	C99	C	0.003446	0.516616	0.443666
	C100	C	-0.005811	0.521038	0.252788
	C101	C	-0.005766	0.552871	0.175892
	C102	C	0.003936	0.582010	0.284891
	C103	C	0.013790	0.577851	0.474000
	C104	C	0.013294	0.546048	0.551477
	H105	H	-0.013409	0.555566	0.029193
	H106	H	-0.035784	0.403113	0.477771
	H107	H	0.021704	0.599872	0.561455
	H108	H	0.035043	0.440856	0.895152
	H109	H	-0.012706	0.499276	0.161085
	H110	H	-0.033904	0.458568	0.335289
	H111	H	0.038824	0.496081	0.747431
	H112	H	0.020127	0.544301	0.700138
	C113	C	-0.003123	0.384770	0.789727
	H114	H	-0.019341	0.365113	0.717855
	C115	C	0.004255	0.615829	0.203383
	H116	H	0.013294	0.636651	0.299729
	C117	C	0.006182	0.073577	0.830109
	C118	C	-0.006256	0.074715	0.644054
	C119	C	-0.009177	0.046067	0.524139
	C120	C	-0.000020	0.014732	0.584475
	C121	C	0.012290	0.013745	0.771704
	C122	C	0.015412	0.042451	0.891510
	C123	C	-0.003446	-0.016024	0.455716
	C124	C	0.018268	-0.042118	0.466382
	C125	C	0.014821	-0.070900	0.347529
	C126	C	-0.010513	-0.075047	0.211820
	C127	C	-0.032105	-0.049024	0.199123
	C128	C	-0.028666	-0.020285	0.318266
	H129	H	0.031813	-0.090734	0.358799
	H130	H	0.024900	0.040836	1.035100
	H131	H	-0.051891	-0.051616	0.095325
	H132	H	-0.013467	0.098604	0.594199
	H133	H	0.038548	-0.039624	0.566908
	H134	H	0.018849	-0.010036	0.825977
	H135	H	-0.018236	0.048233	0.380136
	H136	H	-0.046405	-0.001158	0.307644
	C137	C	0.008903	0.104099	0.956699
	H138	H	0.020694	0.101751	1.095818
	C139	C	-0.014534	-0.105760	0.087343
	H140	H	-0.035144	-0.106452	-0.013739
	C141	C	0.505667	0.755319	0.877254
	C142	C	0.411652	0.750646	1.239756
	C143	C	0.508673	0.848968	0.543763
	C144	C	0.499863	0.661132	0.515178
	C145	C	0.599371	0.758017	1.208355
	C146	C	0.423215	0.780306	1.147871
	C147	C	0.496893	0.817766	0.462357
	C148	C	0.529730	0.672614	0.604604
	C149	C	0.568240	0.746358	1.290653
	C150	C	0.452912	0.781902	1.035205
	C151	C	0.495907	0.788222	0.565942
	C152	C	0.531671	0.702341	0.717378
	C153	C	0.538690	0.745434	1.187723
	C154	C	0.472727	0.754322	1.008905
	C155	C	0.507267	0.787867	0.754121
	C156	C	0.504201	0.722185	0.746878
	C157	C	0.538263	0.756735	0.999359
	C158	C	0.460280	0.724463	1.095916
	C159	C	0.519605	0.819069	0.833735
	C160	C	0.474205	0.709936	0.661259
	C161	C	0.569408	0.768901	0.918756
	C162	C	0.430530	0.722613	1.207559
	C163	C	0.520591	0.848674	0.731398
	C164	C	0.472013	0.680155	0.549559
	C165	C	0.599019	0.769833	1.020439
	H166	H	0.409113	0.802461	1.167119
	H167	H	0.488465	0.815928	0.315979
	H168	H	0.551771	0.658433	0.583181
	H169	H	0.566471	0.738024	1.437301
	H170	H	0.460448	0.805209	0.965089
	H171	H	0.485887	0.765081	0.497423
	H172	H	0.555132	0.709838	0.785461
	H173	H	0.515601	0.735540	1.257033
	H174	H	0.474151	0.702162	1.074675
	H175	H	0.528541	0.820160	0.979665
	H176	H	0.452059	0.723963	0.683912
	H177	H	0.570449	0.777779	0.772646
	H178	H	0.421112	0.699036	1.269434
	H179	H	0.530601	0.872255	0.796815
	H180	H	0.448318	0.670845	0.489212
	H181	H	0.622555	0.779737	0.954338
	N182	N	0.381860	0.747615	1.352528
	N183	N	0.510633	0.879541	0.448468
	N184	N	0.496503	0.631321	0.402380
	N185	N	0.629910	0.760040	1.303338
	C186	C	0.005900	0.256203	0.377447
	C187	C	0.000334	0.160965	0.025022
	C188	C	0.098953	0.261189	0.715866
	C189	C	-0.089375	0.250118	0.728139
	C190	C	0.010694	0.349381	0.038548
	C191	C	0.030390	0.173185	0.109994
	C192	C	0.068034	0.248044	0.794114
	C193	C	-0.077222	0.280309	0.643802
	C194	C	-0.002350	0.318376	-0.039557
	C195	C	0.032236	0.203188	0.220295
	C196	C	0.038672	0.246538	0.689180
	C197	C	-0.047185	0.282331	0.534254
	C198	C	-0.003816	0.288983	0.065600
	C199	C	0.004750	0.223082	0.246932
	C200	C	0.038374	0.257797	0.500688
	C201	C	-0.027196	0.254892	0.507748
	C202	C	0.007386	0.288737	0.254175
	C203	C	-0.025110	0.210705	0.160221
	C204	C	0.069502	0.270369	0.421740
	C205	C	-0.039477	0.224912	0.594110
	C206	C	0.019828	0.319958	0.333029
	C207	C	-0.027226	0.180626	0.051242
	C208	C	0.098899	0.272021	0.525704
	C209	C	-0.069589	0.222621	0.702343
	C210	C	0.021442	0.349389	0.228827
	H211	H	0.052503	0.159084	0.089548
	H212	H	0.066126	0.239482	0.940259
	H213	H	-0.091418	0.302383	0.664068
	H214	H	-0.010823	0.316426	-0.185837
	H215	H	0.055693	0.210986	0.287660
	H216	H	0.015643	0.236140	0.756941
	H217	H	-0.039439	0.305884	0.467294
	H218	H	-0.014116	0.265887	-0.002127
	H219	H	-0.047235	0.224842	0.180058
	H220	H	0.070691	0.279040	0.275188
	H221	H	-0.025246	0.202826	0.574487
	H222	H	0.028444	0.321190	0.479639
	H223	H	-0.050740	0.171425	-0.011682
	H224	H	0.122461	0.282010	0.460287
	H225	H	-0.078723	0.199009	0.764895
	H226	H	0.031343	0.373023	0.294127
	N227	N	-0.002445	0.131636	-0.092378
	N228	N	0.129628	0.262390	0.809141
	N229	N	-0.118769	0.247158	0.844568
	N230	N	0.011924	0.380061	-0.055323
	C231	C	0.488598	0.424438	0.710171
	C232	C	0.513474	0.428394	0.848694
	C233	C	0.516528	0.457008	0.969142
	C234	C	0.494803	0.483076	0.957676
	C235	C	0.469841	0.478854	0.818667
	C236	C	0.466802	0.450295	0.697913
	C237	C	0.498033	0.513855	1.086398
	C238	C	0.488980	0.545147	1.024791
	C239	C	0.491944	0.573920	1.143634
	C240	C	0.504255	0.572959	1.330076
	C241	C	0.513484	0.541904	1.392562
	C242	C	0.510315	0.513061	1.273788
	H243	H	0.484868	0.597775	1.092543
	H244	H	0.447237	0.447764	0.592746
	H245	H	0.523019	0.540458	1.536153
	H246	H	0.530499	0.408601	0.860381
	H247	H	0.480025	0.547203	0.880464
	H248	H	0.452005	0.497885	0.807865
	H249	H	0.536543	0.459409	1.071393
	H250	H	0.516880	0.489345	1.328886
	C251	C	0.485029	0.393970	0.583450
	H252	H	0.464781	0.393460	0.480030
	C253	C	0.507489	0.603782	1.454082
	H254	H	0.519385	0.601667	1.593071
	C255	C	0.504293	1.081249	-0.215434
	C256	C	0.494785	1.052115	-0.324987
	C257	C	0.494827	1.020259	-0.248471
	C258	C	0.503893	1.015820	-0.057278
	C259	C	0.513542	1.045243	0.051119
	C260	C	0.513925	1.077073	-0.025913
	C261	C	0.502687	0.981754	0.028497
	C262	C	0.521805	0.975469	0.188473
	C263	C	0.519701	0.944160	0.272909
	C264	C	0.498585	0.917312	0.200767
	C265	C	0.480058	0.923030	0.038513
	C266	C	0.481964	0.954457	-0.044637
	H267	H	0.534604	0.940055	0.396635
	H268	H	0.521576	1.099099	0.062197
	H269	H	0.463790	0.902604	-0.021508
	H270	H	0.487193	1.054837	-0.471753
	H271	H	0.539108	0.995132	0.246716
	H272	H	0.520220	1.043458	0.200025
	H273	H	0.488075	0.998499	-0.340489
	H274	H	0.466423	0.957905	-0.166260
	C275	C	0.503911	1.115132	-0.295327
	H276	H	0.512260	1.136006	-0.197472
	C277	C	0.495711	0.884316	0.293158
	H278	H	0.479379	0.864736	0.221428
	C279	C	0.331694	0.253604	0.462932
	C280	C	0.302648	0.244394	0.573659
	C281	C	0.270790	0.244671	0.498258
	C282	C	0.266247	0.253689	0.307052
	C283	C	0.295590	0.262983	0.197371
	C284	C	0.327427	0.263133	0.273279
	C285	C	0.232144	0.252877	0.222808
	C286	C	0.225948	0.271971	0.062419
	C287	C	0.194548	0.270350	-0.020037
	C288	C	0.167510	0.249775	0.054591
	C289	C	0.173168	0.231235	0.217026
	C290	C	0.204686	0.232643	0.298151
	H291	H	0.190511	0.285250	-0.144010
	H292	H	0.349383	0.270547	0.184228
	H293	H	0.152610	0.215365	0.278893
	H294	H	0.305440	0.236868	0.720519
	H295	H	0.245756	0.288907	0.002328
	H296	H	0.293731	0.269593	0.048380
	H297	H	0.249118	0.238163	0.591248
	H298	H	0.208046	0.217106	0.420054
	C299	C	0.365562	0.253100	0.542006
	H300	H	0.386382	0.261244	0.443398
	C301	C	0.134343	0.247574	-0.035044
	H302	H	0.114660	0.231653	0.038627
	C303	C	0.674892	0.239491	0.540517
	C304	C	0.678796	0.264396	0.401825
	C305	C	0.707412	0.267575	0.281797
	C306	C	0.733535	0.245942	0.293788
	C307	C	0.729390	0.220982	0.433169
	C308	C	0.700829	0.217825	0.553556
	C309	C	0.764240	0.249217	0.164836
	C310	C	0.795518	0.240177	0.225945
	C311	C	0.824177	0.243092	0.106454
	C312	C	0.823104	0.255342	-0.080140
	C313	C	0.792073	0.264600	-0.142029
	C314	C	0.763351	0.261477	-0.022636
	H315	H	0.848020	0.235997	0.157021
	H316	H	0.698349	0.198250	0.658942
	H317	H	0.790543	0.274098	-0.285710
	H318	H	0.658952	0.281338	0.389625
	H319	H	0.797646	0.231242	0.370304
	H320	H	0.748475	0.203224	0.444511
	H321	H	0.709754	0.287609	0.179387
	H322	H	0.739649	0.268033	-0.077408
	C323	C	0.644383	0.235751	0.666456
	H324	H	0.643924	0.215536	0.770344
	C325	C	0.853731	0.258386	-0.205420
	H326	H	0.851423	0.270005	-0.345161
	C327	C	0.495496	0.245218	0.123255
	C328	C	0.493508	0.150751	0.449364
	C329	C	0.501145	0.340468	0.477357
	C330	C	0.401190	0.242876	-0.202710
	C331	C	0.590736	0.251492	-0.229463
	C332	C	0.506571	0.181606	0.529466
	C333	C	0.470859	0.327472	0.397495
	C334	C	0.431946	0.256094	-0.282854
	C335	C	0.577838	0.221047	-0.150427
	C336	C	0.506723	0.211529	0.429759
	C337	C	0.469090	0.297469	0.287302
	C338	C	0.461828	0.256344	-0.183251
	C339	C	0.547823	0.219076	-0.040778
	C340	C	0.494402	0.212401	0.243933
	C341	C	0.496821	0.278086	0.256022
	C342	C	0.462749	0.243972	0.002507
	C343	C	0.528339	0.246750	-0.009299
	C344	C	0.481616	0.181416	0.163704
	C345	C	0.526806	0.290882	0.339752
	C346	C	0.431866	0.231009	0.082728
	C347	C	0.541014	0.276883	-0.092468
	C348	C	0.481084	0.151542	0.263125
	C349	C	0.528878	0.321073	0.447953
	C350	C	0.402037	0.230383	-0.016579
	C351	C	0.571218	0.279158	-0.200096
	H352	H	0.516860	0.182945	0.671508
	H353	H	0.448229	0.340650	0.420409
	H354	H	0.433220	0.266464	-0.424770
	H355	H	0.591114	0.198458	-0.173568
	H356	H	0.517064	0.234507	0.498917
	H357	H	0.445415	0.289329	0.223419
	H358	H	0.484733	0.266820	-0.252343
	H359	H	0.539759	0.195290	0.022559
	H360	H	0.472035	0.180706	0.019284
	H361	H	0.549106	0.277072	0.317555
	H362	H	0.431201	0.221381	0.227097
	H363	H	0.527103	0.299137	-0.070230
	H364	H	0.470554	0.128199	0.197506
	H365	H	0.552566	0.330570	0.507849
	H366	H	0.378771	0.219732	0.049057
	H367	H	0.580631	0.302959	-0.259484
	N368	N	0.494144	0.119432	0.534844
	N369	N	0.504519	0.370089	0.592262
	N370	N	0.369902	0.243484	-0.287852
	N371	N	0.620392	0.255065	-0.343583
