data_Molecule from CHK

_cell_length_a		28.382041
_cell_length_b		31.643119
_cell_length_c		7.568630
_cell_angle_alpha	83.874661
_cell_angle_beta	88.413658
_cell_angle_gamma	94.201214
_symmetry_space_group_name_H-M	'P 1'
_symmetry_Int_Tables_number		1

loop_
	_symmetry_equiv_pos_as_xyz
	x,y,z

loop_
	_atom_site_label
	_atom_site_type_symbol
	_atom_site_fract_x
	_atom_site_fract_y
	_atom_site_fract_z
	C0	C	-0.002232	0.765904	0.317398
	C1	C	-0.011861	0.648290	0.696940
	C2	C	-0.000719	0.883574	0.587895
	C3	C	-0.124803	0.754124	-0.030561
	C4	C	0.128970	0.767964	-0.017006
	C5	C	0.004988	0.687465	0.750440
	C6	C	-0.041063	0.868788	0.503770
	C7	C	-0.079576	0.768698	-0.101326
	C8	C	0.109085	0.730085	0.077308
	C9	C	0.008058	0.724717	0.632311
	C10	C	-0.041743	0.831666	0.419263
	C11	C	-0.041254	0.773541	0.008253
	C12	C	0.068112	0.729539	0.183761
	C13	C	-0.006201	0.724945	0.456429
	C14	C	-0.002235	0.807616	0.412777
	C15	C	-0.045589	0.763161	0.192852
	C16	C	0.045097	0.766608	0.203062
	C17	C	-0.024441	0.685664	0.406130
	C18	C	0.038431	0.823411	0.493264
	C19	C	-0.091033	0.748882	0.262867
	C20	C	0.066066	0.804597	0.111642
	C21	C	-0.027585	0.648354	0.522957
	C22	C	0.039399	0.860478	0.578259
	C23	C	-0.129566	0.744167	0.154329
	C24	C	0.107193	0.805459	0.005282
	H25	H	0.015917	0.688416	0.886156
	H26	H	-0.072066	0.886857	0.505879
	H27	H	-0.073918	0.775417	-0.244002
	H28	H	0.125991	0.700834	0.065103
	H29	H	0.021681	0.754002	0.679914
	H30	H	-0.073736	0.821795	0.355717
	H31	H	-0.007175	0.784762	-0.053056
	H32	H	0.054126	0.699352	0.252477
	H33	H	-0.035998	0.684098	0.271446
	H34	H	0.070099	0.806349	0.487678
	H35	H	-0.096071	0.740651	0.405247
	H36	H	0.049561	0.834013	0.123540
	H37	H	-0.042558	0.618872	0.479386
	H38	H	0.071575	0.872081	0.637105
	H39	H	-0.164006	0.732098	0.211833
	H40	H	0.122846	0.835307	-0.062530
	N41	N	-0.014934	0.610674	0.815287
	N42	N	0.000083	0.921811	0.666715
	N43	N	-0.163238	0.745958	-0.137604
	N44	N	0.170635	0.768105	-0.121754
	C45	C	0.291684	0.748687	0.386729
	C46	C	0.210499	0.754835	0.605824
	C47	C	0.246047	0.741616	0.323056
	C48	C	0.256137	0.761751	0.669706
	C49	C	0.206218	0.744605	0.430522
	C50	C	0.295964	0.758759	0.562252
	H51	H	0.330919	0.763985	0.613679
	H52	H	0.171262	0.739252	0.379267
	H53	H	0.259777	0.769279	0.805393
	H54	H	0.242405	0.733971	0.187527
	C55	C	0.334104	0.745850	0.272882
	H56	H	0.368370	0.754117	0.329668
	C57	C	0.168103	0.757207	0.720410
	H58	H	0.133856	0.748648	0.664107
	C59	C	0.713713	0.740637	0.386725
	C60	C	0.789315	0.760330	0.607755
	C61	C	0.744696	0.777253	0.343771
	C62	C	0.758260	0.723775	0.650985
	C63	C	0.781808	0.786944	0.452017
	C64	C	0.721142	0.714083	0.542708
	H65	H	0.697380	0.685894	0.578397
	H66	H	0.805480	0.815204	0.416562
	H67	H	0.763816	0.703224	0.771524
	H68	H	0.739077	0.797880	0.223511
	C69	C	0.673720	0.731030	0.273098
	H70	H	0.651258	0.701735	0.314903
	C71	C	0.828886	0.770389	0.722591
	H72	H	0.850961	0.799952	0.681388
	C73	C	-0.002589	0.458592	1.105000
	C74	C	0.003200	0.537522	0.887966
	C75	C	0.023971	0.464256	0.943684
	C76	C	-0.023619	0.531773	1.048699
	C77	C	0.026800	0.502960	0.837054
	C78	C	-0.026458	0.493059	1.155323
	H79	H	-0.047252	0.489093	1.279043
	H80	H	0.047526	0.506892	0.713180
	H81	H	-0.042139	0.558285	1.087760
	H82	H	0.042441	0.437730	0.904462
	C83	C	-0.005076	0.417728	1.219711
	H84	H	-0.026290	0.416131	1.344321
	C85	C	0.006018	0.578445	0.773619
	H86	H	0.027153	0.579904	0.648870
	C87	C	-0.000580	0.035677	1.096855
	C88	C	-0.000802	-0.039649	0.925054
	C89	C	-0.001805	-0.004655	1.195511
	C90	C	0.000235	0.000670	0.826384
	C91	C	-0.001897	-0.041593	1.111430
	C92	C	0.000346	0.037617	0.910481
	H93	H	0.001070	0.068425	0.832251
	H94	H	-0.002709	-0.072400	1.189710
	H95	H	0.000916	0.002537	0.682454
	H96	H	-0.002599	-0.006550	1.339451
	C97	C	-0.000474	0.074939	1.186140
	H98	H	0.001217	0.105258	1.099764
	C99	C	-0.001336	-0.078982	0.836183
	H100	H	-0.003136	-0.109247	0.922968
	C101	C	0.504805	0.734497	0.680453
	C102	C	0.373359	0.734413	1.011530
	C103	C	0.517517	0.851168	0.295196
	C104	C	0.501597	0.616063	0.414813
	C105	C	0.626884	0.748735	1.028656
	C106	C	0.393497	0.771890	0.914853
	C107	C	0.497880	0.812451	0.245798
	C108	C	0.542183	0.630704	0.497880
	C109	C	0.581989	0.733069	1.099487
	C110	C	0.434620	0.771843	0.809745
	C111	C	0.494085	0.775453	0.365458
	C112	C	0.543406	0.668089	0.580700
	C113	C	0.543772	0.727542	0.989948
	C114	C	0.457592	0.734559	0.794597
	C115	C	0.509433	0.775194	0.539965
	C116	C	0.504259	0.692607	0.586142
	C117	C	0.548215	0.737056	0.804942
	C118	C	0.436239	0.696926	0.887618
	C119	C	0.528283	0.814422	0.588807
	C120	C	0.463241	0.676802	0.507842
	C121	C	0.593725	0.750936	0.734522
	C122	C	0.394993	0.696664	0.992786
	C123	C	0.532306	0.851448	0.470296
	C124	C	0.461742	0.639495	0.424396
	C125	C	0.632110	0.756498	0.843048
	H126	H	0.376587	0.801273	0.923753
	H127	H	0.485814	0.811573	0.111492
	H128	H	0.572904	0.612258	0.496670
	H129	H	0.576306	0.726702	1.242273
	H130	H	0.448699	0.801694	0.738333
	H131	H	0.478938	0.746394	0.320259
	H132	H	0.575491	0.677729	0.644206
	H133	H	0.509750	0.716219	1.051495
	H134	H	0.452600	0.667335	0.878188
	H135	H	0.539823	0.816146	0.723419
	H136	H	0.431747	0.694100	0.513515
	H137	H	0.598910	0.758291	0.591784
	H138	H	0.379112	0.667096	1.062272
	H139	H	0.547609	0.880922	0.512919
	H140	H	0.429351	0.627962	0.366787
	H141	H	0.666674	0.767978	0.785054
	N142	N	0.331600	0.734849	1.115200
	N143	N	0.519204	0.888959	0.178227
	N144	N	0.500346	0.577693	0.336803
	N145	N	0.665763	0.755847	1.134576
	C146	C	0.001474	0.232437	0.687108
	C147	C	-0.001661	0.111900	0.436183
	C148	C	0.123487	0.247672	1.035067
	C149	C	-0.131979	0.231709	1.007296
	C150	C	0.014258	0.348238	0.297018
	C151	C	0.039478	0.128039	0.511567
	C152	C	0.078674	0.231789	1.106051
	C153	C	-0.110881	0.269465	0.915786
	C154	C	-0.005379	0.309349	0.249350
	C155	C	0.040632	0.166024	0.590101
	C156	C	0.040464	0.226043	0.996637
	C157	C	-0.069181	0.269595	0.813857
	C158	C	-0.009229	0.272621	0.370572
	C159	C	0.001235	0.190252	0.594809
	C160	C	0.044838	0.235478	0.811605
	C161	C	-0.045896	0.232410	0.800443
	C162	C	0.005753	0.272888	0.545370
	C163	C	-0.039679	0.173959	0.517303
	C164	C	0.090271	0.249621	0.741070
	C165	C	-0.067028	0.194830	0.894625
	C166	C	0.024691	0.312270	0.592345
	C167	C	-0.041147	0.136001	0.438428
	C168	C	0.128635	0.255444	0.849444
	C169	C	-0.108889	0.194374	0.996400
	C170	C	0.028880	0.348997	0.472150
	H171	H	0.070476	0.109949	0.510187
	H172	H	0.073065	0.225271	1.248817
	H173	H	-0.127890	0.298822	0.924080
	H174	H	-0.017311	0.308100	0.115043
	H175	H	0.072932	0.176450	0.650329
	H176	H	0.006558	0.214318	1.058132
	H177	H	-0.054791	0.299539	0.744104
	H178	H	-0.024511	0.243435	0.326906
	H179	H	-0.071189	0.191299	0.520631
	H180	H	0.095424	0.256929	0.598303
	H181	H	-0.050087	0.165410	0.888329
	H182	H	0.036105	0.314378	0.726896
	H183	H	-0.073399	0.124235	0.380544
	H184	H	0.163136	0.267089	0.791294
	H185	H	-0.124418	0.164884	1.067692
	H186	H	0.044240	0.378594	0.513452
	N187	N	-0.002129	0.073936	0.355658
	N188	N	0.162424	0.254910	1.140596
	N189	N	-0.173087	0.232351	1.114351
	N190	N	0.016290	0.385722	0.178160
	C191	C	0.499774	0.463628	-0.092879
	C192	C	0.500864	0.539022	0.078675
	C193	C	0.501093	0.503953	-0.191637
	C194	C	0.499251	0.498687	0.177479
	C195	C	0.501613	0.540926	-0.107683
	C196	C	0.498727	0.461705	0.093499
	H197	H	0.497634	0.430885	0.171818
	H198	H	0.502572	0.571729	-0.186080
	H199	H	0.498548	0.496842	0.321404
	H200	H	0.501697	0.505818	-0.335562
	C201	C	0.499082	0.424333	-0.182093
	H202	H	0.497089	0.394007	-0.095695
	C203	C	0.501650	0.578388	0.167349
	H204	H	0.503614	0.608629	0.080349
	C205	C	0.502885	1.040858	0.894725
	C206	C	0.498991	0.961581	1.108777
	C207	C	0.476175	1.034263	1.055674
	C208	C	0.525539	0.968119	0.947455
	C209	C	0.474269	0.995381	1.160841
	C210	C	0.527450	1.007000	0.842302
	H211	H	0.548118	1.011599	0.718266
	H212	H	0.453494	0.990742	1.284625
	H213	H	0.544688	0.942117	0.906961
	H214	H	0.456924	1.060230	1.095913
	C215	C	0.504381	1.081853	0.781297
	H216	H	0.525485	1.084010	0.656201
	C217	C	0.497177	0.920450	1.221399
	H218	H	0.475995	0.918226	1.346327
	C219	C	0.286929	0.259186	0.610673
	C220	C	0.210630	0.239840	0.392233
	C221	C	0.255534	0.222926	0.655515
	C222	C	0.241884	0.276217	0.347869
	C223	C	0.218079	0.213406	0.548527
	C224	C	0.279339	0.285737	0.454852
	H225	H	0.303252	0.313782	0.418216
	H226	H	0.194095	0.185420	0.585394
	H227	H	0.236235	0.296760	0.227407
	H228	H	0.261115	0.202440	0.776212
	C229	C	0.327016	0.268876	0.723752
	H230	H	0.349377	0.298211	0.681562
	C231	C	0.170431	0.230252	0.279521
	H232	H	0.147913	0.201041	0.322213
	C233	C	0.708260	0.253144	0.611802
	C234	C	0.788409	0.246331	0.388256
	C235	C	0.754237	0.259693	0.673089
	C236	C	0.742432	0.239582	0.327238
	C237	C	0.793554	0.256379	0.563435
	C238	C	0.703113	0.242898	0.436899
	H239	H	0.667884	0.237801	0.387756
	H240	H	0.828782	0.261369	0.612722
	H241	H	0.738131	0.231968	0.191956
	H242	H	0.758544	0.267207	0.808506
	C243	C	0.666405	0.256017	0.728595
	H244	H	0.631787	0.247930	0.674179
	C245	C	0.830293	0.243242	0.271922
	H246	H	0.864896	0.251255	0.326628
	C247	C	0.495854	0.266858	0.316560
	C248	C	0.373853	0.251640	-0.031348
	C249	C	0.628890	0.267481	-0.006111
	C250	C	0.483642	0.150912	0.705799
	C251	C	0.499582	0.387354	0.567826
	C252	C	0.418666	0.267520	-0.102334
	C253	C	0.607741	0.229702	0.085046
	C254	C	0.503232	0.189808	0.753545
	C255	C	0.458315	0.371337	0.492895
	C256	C	0.456859	0.273324	0.007098
	C257	C	0.566225	0.229613	0.188029
	C258	C	0.506846	0.226588	0.632642
	C259	C	0.456955	0.333367	0.414170
	C260	C	0.452482	0.263892	0.192136
	C261	C	0.543243	0.266885	0.203261
	C262	C	0.491613	0.226379	0.458150
	C263	C	0.496242	0.309015	0.409068
	C264	C	0.407035	0.249803	0.262680
	C265	C	0.564276	0.304446	0.108612
	C266	C	0.472606	0.187014	0.411226
	C267	C	0.537285	0.325194	0.486107
	C268	C	0.368677	0.243952	0.154286
	C269	C	0.605974	0.304866	0.005924
	C270	C	0.468690	0.150223	0.531075
	C271	C	0.538973	0.363147	0.564992
	H272	H	0.424324	0.273857	-0.245138
	H273	H	0.624487	0.200271	0.075216
	H274	H	0.515242	0.191030	0.887752
	H275	H	0.427348	0.389449	0.495187
	H276	H	0.490819	0.284829	-0.054507
	H277	H	0.551653	0.199611	0.256716
	H278	H	0.521922	0.255815	0.676596
	H279	H	0.424504	0.322913	0.355008
	H280	H	0.401878	0.242517	0.405454
	H281	H	0.547448	0.333898	0.115587
	H282	H	0.460970	0.184953	0.276933
	H283	H	0.568726	0.307771	0.482399
	H284	H	0.334174	0.232313	0.212423
	H285	H	0.621495	0.334365	-0.065321
	H286	H	0.453349	0.120613	0.489827
	H287	H	0.571330	0.374831	0.622413
	N288	N	0.334974	0.244290	-0.137048
	N289	N	0.669873	0.266877	-0.113827
	N290	N	0.482192	0.113309	0.823873
	N291	N	0.500382	0.425322	0.648392
