data_Molecule from CHK

_cell_length_a		30.922388
_cell_length_b		30.922388
_cell_length_c		7.288443
_cell_angle_alpha	90.000000
_cell_angle_beta	90.000000
_cell_angle_gamma	90.000000
_symmetry_space_group_name_H-M	'P 1'
_symmetry_Int_Tables_number		1

loop_
	_symmetry_equiv_pos_as_xyz
	x,y,z

loop_
	_atom_site_label
	_atom_site_type_symbol
	_atom_site_fract_x
	_atom_site_fract_y
	_atom_site_fract_z
	C0	C	0.000000	0.750000	0.250000
	C1	C	-0.003039	0.629265	0.579363
	C2	C	0.006636	0.866625	0.603792
	C3	C	-0.120585	0.745254	-0.079825
	C4	C	0.116685	0.758147	-0.103022
	C5	C	0.004087	0.669405	0.663735
	C6	C	-0.031273	0.856645	0.507109
	C7	C	-0.080775	0.754643	-0.162970
	C8	C	0.106832	0.719919	-0.008394
	C9	C	0.005371	0.707604	0.561542
	C10	C	-0.033868	0.819977	0.395692
	C11	C	-0.042560	0.756066	-0.060920
	C12	C	0.070152	0.716854	0.102748
	C13	C	-0.000550	0.707814	0.370771
	C14	C	0.001149	0.791608	0.374243
	C15	C	-0.042145	0.748949	0.129102
	C16	C	0.041636	0.751688	0.125976
	C17	C	-0.009607	0.667696	0.289071
	C18	C	0.039337	0.802624	0.467500
	C19	C	-0.082174	0.739497	0.210791
	C20	C	0.052523	0.790186	0.034744
	C21	C	-0.010865	0.629381	0.390084
	C22	C	0.042178	0.839139	0.579328
	C23	C	-0.120506	0.738095	0.109937
	C24	C	0.089046	0.793500	-0.076804
	H25	H	0.008149	0.670584	0.811384
	H26	H	-0.059080	0.877710	0.521982
	H27	H	-0.079833	0.759914	-0.309973
	H28	H	0.127998	0.692233	-0.024667
	H29	H	0.010243	0.737766	0.633641
	H30	H	-0.063763	0.813834	0.323386
	H31	H	-0.012559	0.762174	-0.132514
	H32	H	0.064127	0.686721	0.173412
	H33	H	-0.015855	0.666720	0.142752
	H34	H	0.067347	0.781885	0.451475
	H35	H	-0.083082	0.733212	0.357091
	H36	H	0.031685	0.818077	0.052108
	H37	H	-0.018070	0.598939	0.322925
	H38	H	0.072121	0.846743	0.649622
	H39	H	-0.150906	0.730795	0.177250
	H40	H	0.096543	0.823674	-0.145512
	N41	N	-0.005389	0.590653	0.680706
	N42	N	0.010053	0.904195	0.711537
	N43	N	-0.159508	0.745183	-0.179528
	N44	N	0.154261	0.762043	-0.210442
	C45	C	0.287073	0.757519	0.390030
	C46	C	0.212858	0.742486	0.609553
	C47	C	0.272453	0.715292	0.424994
	C48	C	0.227579	0.784705	0.575208
	C49	C	0.236092	0.707893	0.532574
	C50	C	0.263944	0.792105	0.467641
	H51	H	0.274858	0.824874	0.442578
	H52	H	0.225249	0.675118	0.558054
	H53	H	0.209869	0.811533	0.634708
	H54	H	0.290221	0.688458	0.365861
	C55	C	0.325806	0.765422	0.276297
	H56	H	0.335123	0.799377	0.255818
	C57	C	0.174346	0.734549	0.724582
	H58	H	0.165156	0.700579	0.745680
	C59	C	0.709175	0.746658	0.412543
	C60	C	0.790855	0.753234	0.587274
	C61	C	0.744757	0.765110	0.321732
	C62	C	0.755229	0.734942	0.678357
	C63	C	0.784795	0.768353	0.407252
	C64	C	0.715189	0.731703	0.592842
	H65	H	0.688053	0.717516	0.665113
	H66	H	0.811900	0.782650	0.335159
	H67	H	0.759664	0.723340	0.817516
	H68	H	0.740300	0.776806	0.182731
	C69	C	0.666566	0.743340	0.322070
	H70	H	0.640411	0.728556	0.402618
	C71	C	0.833376	0.756900	0.678251
	H72	H	0.859470	0.771860	0.597926
	C73	C	-0.004104	0.459426	1.088963
	C74	C	0.004003	0.540611	0.911262
	C75	C	0.018648	0.493619	1.171438
	C76	C	-0.018600	0.506364	0.828452
	C77	C	0.022644	0.533413	1.084454
	C78	C	-0.022592	0.466568	0.915430
	H79	H	-0.040126	0.440501	0.849577
	H80	H	0.040281	0.559441	1.150086
	H81	H	-0.032942	0.511673	0.694543
	H82	H	0.033080	0.488281	1.305153
	C83	C	-0.008236	0.417068	1.180944
	H84	H	-0.026482	0.392027	1.107078
	C85	C	0.008464	0.582857	0.818641
	H86	H	0.026875	0.607826	0.892214
	C87	C	0.007519	0.036792	1.111656
	C88	C	-0.007522	-0.036861	0.888760
	C89	C	-0.034730	0.023751	1.067219
	C90	C	0.034731	-0.023718	0.932579
	C91	C	-0.042133	-0.012334	0.957979
	C92	C	0.042135	0.012370	1.041806
	H93	H	0.074931	0.022058	1.074221
	H94	H	-0.074927	-0.021951	0.925146
	H95	H	0.061582	-0.042433	0.879099
	H96	H	-0.061581	0.042522	1.120332
	C97	C	0.015436	0.075229	1.227164
	H98	H	0.049413	0.083276	1.255261
	C99	C	-0.015449	-0.075076	0.771953
	H100	H	-0.049428	-0.082997	0.743235
	C101	C	0.500000	0.750000	0.750000
	C102	C	0.383219	0.743006	1.103089
	C103	C	0.502665	0.870595	0.420030
	C104	C	0.492305	0.632364	0.402481
	C105	C	0.621253	0.753579	1.075615
	C106	C	0.392791	0.780702	1.004048
	C107	C	0.494835	0.830537	0.336245
	C108	C	0.530762	0.643106	0.493744
	C109	C	0.581441	0.745310	1.160740
	C110	C	0.429564	0.783411	0.893302
	C111	C	0.493773	0.792336	0.438465
	C112	C	0.533573	0.679934	0.604121
	C113	C	0.543045	0.743961	1.059894
	C114	C	0.458504	0.748760	0.874911
	C115	C	0.500671	0.792085	0.628624
	C116	C	0.498551	0.708252	0.626717
	C117	C	0.542332	0.750991	0.869844
	C118	C	0.447533	0.710556	0.968091
	C119	C	0.509730	0.832230	0.710139
	C120	C	0.460196	0.697126	0.534987
	C121	C	0.582230	0.760479	0.787010
	C122	C	0.410911	0.707605	1.079263
	C123	C	0.510770	0.870546	0.609116
	C124	C	0.457138	0.660451	0.424195
	C125	C	0.620740	0.761806	0.886641
	H126	H	0.370803	0.807930	1.012694
	H127	H	0.488985	0.829645	0.189629
	H128	H	0.558369	0.621712	0.480757
	H129	H	0.580893	0.739338	1.307299
	H130	H	0.435065	0.812944	0.817432
	H131	H	0.487805	0.762266	0.367207
	H132	H	0.563559	0.686056	0.675799
	H133	H	0.513188	0.737659	1.132220
	H134	H	0.468307	0.682558	0.952276
	H135	H	0.516037	0.833195	0.856387
	H136	H	0.432217	0.717914	0.551116
	H137	H	0.582863	0.766899	0.640822
	H138	H	0.403280	0.677588	1.148974
	H139	H	0.517828	0.901035	0.676134
	H140	H	0.427069	0.652819	0.354895
	H141	H	0.651027	0.769190	0.818605
	N142	N	0.345848	0.739416	1.211876
	N143	N	0.505201	0.909046	0.317572
	N144	N	0.489425	0.596250	0.285925
	N145	N	0.659892	0.756412	1.176654
	C146	C	0.000000	0.250000	0.750000
	C147	C	-0.006994	0.133219	0.396911
	C148	C	0.120595	0.252665	1.079970
	C149	C	-0.117636	0.242305	1.097519
	C150	C	0.003579	0.371253	0.424385
	C151	C	0.030702	0.142791	0.495952
	C152	C	0.080537	0.244835	1.163755
	C153	C	-0.106894	0.280762	1.006256
	C154	C	-0.004690	0.331441	0.339260
	C155	C	0.033411	0.179564	0.606698
	C156	C	0.042336	0.243773	1.061535
	C157	C	-0.070066	0.283573	0.895879
	C158	C	-0.006039	0.293045	0.440106
	C159	C	-0.001240	0.208504	0.625089
	C160	C	0.042085	0.250671	0.871376
	C161	C	-0.041748	0.248551	0.873283
	C162	C	0.000991	0.292332	0.630156
	C163	C	-0.039444	0.197533	0.531909
	C164	C	0.082230	0.259730	0.789861
	C165	C	-0.052874	0.210196	0.965013
	C166	C	0.010479	0.332230	0.712990
	C167	C	-0.042395	0.160911	0.420737
	C168	C	0.120546	0.260770	0.890884
	C169	C	-0.089549	0.207138	1.075805
	C170	C	0.011806	0.370740	0.613359
	H171	H	0.057930	0.120803	0.487306
	H172	H	0.079645	0.238985	1.310371
	H173	H	-0.128288	0.308369	1.019243
	H174	H	-0.010662	0.330893	0.192701
	H175	H	0.062944	0.185065	0.682568
	H176	H	0.012266	0.237805	1.132793
	H177	H	-0.063944	0.313559	0.824201
	H178	H	-0.012341	0.263188	0.367780
	H179	H	-0.067442	0.218307	0.547724
	H180	H	0.083195	0.266037	0.643613
	H181	H	-0.032086	0.182217	0.948884
	H182	H	0.016899	0.332863	0.859178
	H183	H	-0.072412	0.153280	0.351026
	H184	H	0.151035	0.267828	0.823866
	H185	H	-0.097181	0.177069	1.145105
	H186	H	0.019190	0.401027	0.681395
	N187	N	-0.010584	0.095848	0.288124
	N188	N	0.159046	0.255201	1.182428
	N189	N	-0.153750	0.239425	1.214075
	N190	N	0.006412	0.409892	0.323346
	C191	C	0.492482	0.463213	-0.111685
	C192	C	0.507513	0.536718	0.112099
	C193	C	0.534705	0.475810	-0.064583
	C194	C	0.465298	0.524224	0.064385
	C195	C	0.542104	0.511829	0.045051
	C196	C	0.457899	0.488207	-0.045268
	H197	H	0.425132	0.479035	-0.080785
	H198	H	0.574876	0.521069	0.080144
	H199	H	0.438472	0.543380	0.115219
	H200	H	0.561537	0.456717	-0.115766
	C201	C	0.484579	0.425036	-0.228756
	H202	H	0.450627	0.417417	-0.259421
	C203	C	0.515450	0.575108	0.227856
	H204	H	0.549418	0.582823	0.257809
	C205	C	0.503502	1.040778	0.912261
	C206	C	0.496392	0.959255	1.087935
	C207	C	0.483509	1.005650	0.824176
	C208	C	0.516542	0.994333	1.175731
	C209	C	0.480015	0.965687	0.910141
	C210	C	0.520040	1.034297	1.089756
	H211	H	0.535690	1.061002	1.159441
	H212	H	0.464472	0.938949	0.840252
	H213	H	0.529368	0.989537	1.312723
	H214	H	0.470773	1.010414	0.687016
	C215	C	0.507382	1.083221	0.820792
	H216	H	0.523514	1.108978	0.898954
	C217	C	0.492836	0.916702	1.178718
	H218	H	0.476870	0.890905	1.100172
	C219	C	0.290624	0.253968	0.588662
	C220	C	0.209413	0.245931	0.411117
	C221	C	0.256374	0.231372	0.671483
	C222	C	0.243608	0.268677	0.328622
	C223	C	0.216563	0.227421	0.584598
	C224	C	0.283418	0.272631	0.415518
	H225	H	0.309437	0.290296	0.349951
	H226	H	0.190508	0.209859	0.650396
	H227	H	0.238249	0.283152	0.195005
	H228	H	0.261696	0.216983	0.805291
	C229	C	0.332898	0.258330	0.681150
	H230	H	0.357947	0.276553	0.607235
	C231	C	0.167017	0.241878	0.319393
	H232	H	0.141921	0.223814	0.393732
	C233	C	0.713340	0.242492	0.612448
	C234	C	0.786590	0.257499	0.387138
	C235	C	0.725222	0.284645	0.561058
	C236	C	0.774812	0.215360	0.439140
	C237	C	0.761116	0.292032	0.450673
	C238	C	0.738920	0.207973	0.549544
	H239	H	0.730303	0.175265	0.588389
	H240	H	0.769802	0.324748	0.412251
	H241	H	0.794421	0.188583	0.391030
	H242	H	0.705675	0.311431	0.609516
	C243	C	0.675297	0.234608	0.730322
	H244	H	0.668253	0.200714	0.764435
	C245	C	0.824847	0.265429	0.270574
	H246	H	0.831986	0.299344	0.237172
	C247	C	0.500000	0.250000	0.250000
	C248	C	0.379265	0.246961	-0.079363
	C249	C	0.616625	0.256636	-0.103792
	C250	C	0.495254	0.129415	0.579825
	C251	C	0.508147	0.366685	0.603022
	C252	C	0.419405	0.254087	-0.163735
	C253	C	0.606645	0.218727	-0.007109
	C254	C	0.504643	0.169225	0.662970
	C255	C	0.469919	0.356832	0.508394
	C256	C	0.457604	0.255371	-0.061542
	C257	C	0.569977	0.216132	0.104308
	C258	C	0.506066	0.207440	0.560920
	C259	C	0.466854	0.320152	0.397252
	C260	C	0.457814	0.249450	0.129229
	C261	C	0.541608	0.251149	0.125757
	C262	C	0.498949	0.207855	0.370898
	C263	C	0.501688	0.291636	0.374024
	C264	C	0.417696	0.240393	0.210929
	C265	C	0.552624	0.289337	0.032500
	C266	C	0.489497	0.167826	0.289209
	C267	C	0.540186	0.302523	0.465256
	C268	C	0.379381	0.239135	0.109916
	C269	C	0.589139	0.292178	-0.079328
	C270	C	0.488095	0.129494	0.390063
	C271	C	0.543500	0.339046	0.576804
	H272	H	0.420584	0.258149	-0.311384
	H273	H	0.627710	0.190920	-0.021982
	H274	H	0.509914	0.170167	0.809973
	H275	H	0.442233	0.377998	0.524667
	H276	H	0.487766	0.260243	-0.133641
	H277	H	0.563834	0.186237	0.176614
	H278	H	0.512174	0.237441	0.632514
	H279	H	0.436721	0.314127	0.326588
	H280	H	0.416720	0.234145	0.357248
	H281	H	0.531885	0.317347	0.048525
	H282	H	0.483212	0.166918	0.142909
	H283	H	0.568077	0.281685	0.447892
	H284	H	0.348939	0.231930	0.177075
	H285	H	0.596743	0.322121	-0.149622
	H286	H	0.480795	0.099094	0.322750
	H287	H	0.573674	0.346543	0.645512
	N288	N	0.340653	0.244611	-0.180706
	N289	N	0.654195	0.260053	-0.211537
	N290	N	0.495183	0.090492	0.679528
	N291	N	0.512043	0.404261	0.710442
