data_Molecule from CHK

_cell_length_a		42.700694
_cell_length_b		42.690774
_cell_length_c		6.905240
_cell_angle_alpha	97.401171
_cell_angle_beta	82.692158
_cell_angle_gamma	85.574747
_symmetry_space_group_name_H-M	'P 1'
_symmetry_Int_Tables_number		1

loop_
	_symmetry_equiv_pos_as_xyz
	x,y,z

loop_
	_atom_site_label
	_atom_site_type_symbol
	_atom_site_fract_x
	_atom_site_fract_y
	_atom_site_fract_z
	C0	C	-0.006980	0.743001	0.870924
	C1	C	-0.000659	0.650685	1.099188
	C2	C	-0.004095	0.832675	1.267469
	C3	C	-0.099448	0.749685	0.644474
	C4	C	0.082570	0.745707	0.474083
	C5	C	0.007129	0.678027	1.211774
	C6	C	-0.032829	0.823417	1.212304
	C7	C	-0.072182	0.757580	0.532091
	C8	C	0.073253	0.716979	0.528805
	C9	C	0.005267	0.707510	1.143458
	C10	C	-0.034123	0.794502	1.095050
	C11	C	-0.042644	0.755567	0.599760
	C12	C	0.044377	0.715750	0.646169
	C13	C	-0.004881	0.711143	0.961790
	C14	C	-0.007046	0.773214	1.028481
	C15	C	-0.038851	0.745021	0.780073
	C16	C	0.023178	0.742885	0.713218
	C17	C	-0.013520	0.683766	0.853359
	C18	C	0.021304	0.782058	1.092945
	C19	C	-0.066197	0.736486	0.888889
	C20	C	0.032070	0.771229	0.649100
	C21	C	-0.011476	0.654365	0.919620
	C22	C	0.022910	0.811249	1.206801
	C23	C	-0.095652	0.738686	0.823306
	C24	C	0.061230	0.772772	0.535188
	H25	H	0.015559	0.675924	1.351390
	H26	H	-0.054202	0.839424	1.258758
	H27	H	-0.074385	0.766226	0.393255
	H28	H	0.089186	0.695558	0.481985
	H29	H	0.012092	0.727914	1.232644
	H30	H	-0.056726	0.789254	1.050514
	H31	H	-0.022302	0.762499	0.510884
	H32	H	0.039099	0.693148	0.690442
	H33	H	-0.021506	0.685607	0.712077
	H34	H	0.042787	0.766212	1.046508
	H35	H	-0.064276	0.728397	1.029752
	H36	H	0.016299	0.792761	0.695886
	H37	H	-0.017800	0.633578	0.831463
	H38	H	0.045480	0.818155	1.244826
	H39	H	-0.116393	0.732350	0.911482
	H40	H	0.068185	0.795338	0.497527
	N41	N	0.000727	0.620513	1.158311
	N42	N	-0.001789	0.863818	1.359226
	N43	N	-0.129666	0.751127	0.585868
	N44	N	0.113717	0.747955	0.382634
	C45	C	0.335579	0.751402	0.071537
	C46	C	0.323173	0.760084	0.270940
	C47	C	0.291138	0.758838	0.336365
	C48	C	0.269966	0.748856	0.205650
	C49	C	0.282597	0.740073	0.006077
	C50	C	0.314596	0.741309	-0.059495
	C51	C	0.235642	0.747369	0.275307
	C52	C	0.211985	0.754790	0.159484
	C53	C	0.179994	0.753253	0.225036
	C54	C	0.170146	0.744166	0.409505
	C55	C	0.193640	0.736815	0.525926
	C56	C	0.225576	0.738357	0.460293
	H57	H	0.162054	0.759296	0.134585
	H58	H	0.323701	0.734282	-0.214145
	H59	H	0.186572	0.729614	0.668790
	H60	H	0.339072	0.768143	0.373486
	H61	H	0.218766	0.762630	0.018262
	H62	H	0.267137	0.731497	-0.097682
	H63	H	0.282141	0.766504	0.490495
	H64	H	0.243177	0.731776	0.551417
	C65	C	0.369351	0.752884	-0.000704
	H66	H	0.376338	0.746680	-0.160940
	C67	C	0.136428	0.742628	0.482798
	H68	H	0.131466	0.736471	0.632975
	C69	C	0.671916	0.742975	0.151799
	C70	C	0.697267	0.748230	0.012791
	C71	C	0.728326	0.746150	0.054259
	C72	C	0.735412	0.739129	0.237995
	C73	C	0.710021	0.733667	0.376521
	C74	C	0.678981	0.735330	0.334097
	C75	C	0.768510	0.737894	0.284844
	C76	C	0.775478	0.753802	0.463099
	C77	C	0.806385	0.753187	0.506960
	C78	C	0.831730	0.736282	0.375947
	C79	C	0.824819	0.720134	0.198494
	C80	C	0.793937	0.721191	0.153120
	H81	H	0.811303	0.765907	0.644510
	H82	H	0.659937	0.730615	0.442856
	H83	H	0.843867	0.706574	0.096039
	H84	H	0.692139	0.754282	-0.128320
	H85	H	0.756370	0.767411	0.565159
	H86	H	0.715050	0.727402	0.517363
	H87	H	0.747466	0.750748	-0.054216
	H88	H	0.789068	0.708462	0.015538
	C89	C	0.639030	0.745212	0.105297
	H90	H	0.620671	0.740865	0.222255
	C91	C	0.864364	0.735524	0.426347
	H92	H	0.882894	0.720457	0.323450
	C93	C	-0.005982	0.422240	0.593220
	C94	C	-0.001313	0.447780	0.733052
	C95	C	-0.003838	0.478838	0.691762
	C96	C	-0.010738	0.485738	0.507408
	C97	C	-0.015720	0.460165	0.368301
	C98	C	-0.013602	0.429121	0.410498
	C99	C	-0.012213	0.518817	0.460225
	C100	C	0.003771	0.525774	0.282395
	C101	C	0.002993	0.556652	0.238067
	C102	C	-0.014174	0.581979	0.368083
	C103	C	-0.030447	0.575072	0.544935
	C104	C	-0.029232	0.544218	0.590804
	H105	H	0.015800	0.561560	0.100944
	H106	H	-0.017917	0.409926	0.301177
	H107	H	-0.044218	0.594105	0.646537
	H108	H	0.004692	0.442795	0.874543
	H109	H	0.017596	0.506691	0.181140
	H110	H	-0.021941	0.465040	0.227063
	H111	H	0.000354	0.498127	0.800814
	H112	H	-0.042049	0.539349	0.727932
	C113	C	-0.003011	0.389330	0.638827
	H114	H	-0.006588	0.370784	0.520513
	C115	C	-0.015013	0.614586	0.317263
	H116	H	-0.030223	0.633120	0.419350
	C117	C	0.001420	1.085580	0.680847
	C118	C	0.010535	1.073432	0.481351
	C119	C	0.009455	1.041423	0.413536
	C120	C	-0.000770	1.020031	0.541872
	C121	C	-0.010016	1.032415	0.741495
	C122	C	-0.008950	1.064377	0.809434
	C123	C	-0.002067	0.985722	0.470073
	C124	C	0.005067	0.961962	0.585683
	C125	C	0.003550	0.929992	0.518810
	C126	C	-0.005247	0.920264	0.333178
	C127	C	-0.012288	0.943858	0.216888
	C128	C	-0.010760	0.975779	0.283845
	H129	H	0.009360	0.911975	0.609189
	H130	H	-0.016323	1.073277	0.964090
	H131	H	-0.019256	0.936879	0.073120
	H132	H	0.018795	1.089508	0.380708
	H133	H	0.012671	0.968648	0.727865
	H134	H	-0.018822	1.016791	0.843347
	H135	H	0.017442	1.032616	0.259473
	H136	H	-0.017097	0.993469	0.192797
	C137	C	0.002722	1.119287	0.756143
	H138	H	-0.003695	1.125931	0.916544
	C139	C	-0.006836	0.886560	0.258933
	H140	H	-0.012795	0.881647	0.108151
	C141	C	0.512098	0.762319	0.630711
	C142	C	0.421265	0.762165	1.020462
	C143	C	0.504121	0.853063	0.382060
	C144	C	0.510886	0.671627	0.239998
	C145	C	0.603038	0.754144	0.877633
	C146	C	0.430765	0.790190	0.956283
	C147	C	0.494831	0.825208	0.282816
	C148	C	0.539112	0.680944	0.302359
	C149	C	0.575140	0.745274	0.978414
	C150	C	0.460032	0.790626	0.841315
	C151	C	0.497858	0.796274	0.356709
	C152	C	0.539856	0.710121	0.418129
	C153	C	0.546170	0.748303	0.904813
	C154	C	0.481341	0.763300	0.785115
	C155	C	0.510342	0.793501	0.532325
	C156	C	0.512624	0.731456	0.477533
	C157	C	0.543390	0.760396	0.728041
	C158	C	0.471889	0.735531	0.854878
	C159	C	0.520209	0.821323	0.628438
	C160	C	0.484676	0.722255	0.408843
	C161	C	0.571262	0.769824	0.630250
	C162	C	0.442511	0.734825	0.968257
	C163	C	0.517656	0.850097	0.554335
	C164	C	0.483663	0.692971	0.294705
	C165	C	0.600079	0.767248	0.703942
	H166	H	0.414543	0.811571	0.993442
	H167	H	0.484342	0.825850	0.148764
	H168	H	0.560418	0.664661	0.262942
	H169	H	0.575731	0.735174	1.113762
	H170	H	0.465636	0.812667	0.789839
	H171	H	0.489917	0.775641	0.276149
	H172	H	0.562049	0.715588	0.468093
	H173	H	0.525495	0.740728	0.986744
	H174	H	0.487515	0.713788	0.813996
	H175	H	0.529829	0.820447	0.765778
	H176	H	0.463033	0.737982	0.451376
	H177	H	0.570368	0.779160	0.492081
	H178	H	0.435404	0.712747	1.013309
	H179	H	0.526153	0.870916	0.630418
	H180	H	0.461452	0.686030	0.250739
	H181	H	0.620931	0.775436	0.626583
	N182	N	0.389945	0.760909	1.111938
	N183	N	0.501618	0.883061	0.321605
	N184	N	0.509362	0.640405	0.147347
	N185	N	0.633052	0.751782	0.938081
	C186	C	0.012988	0.263088	0.120668
	C187	C	0.012259	0.171240	-0.256926
	C188	C	0.103202	0.257101	0.377572
	C189	C	-0.078648	0.261788	0.498085
	C190	C	0.006693	0.353341	-0.135247
	C191	C	0.040594	0.181258	-0.200176
	C192	C	0.075653	0.246547	0.471837
	C193	C	-0.068869	0.290205	0.441472
	C194	C	-0.003685	0.325712	-0.230248
	C195	C	0.041193	0.210816	-0.088400
	C196	C	0.046856	0.249076	0.395856
	C197	C	-0.039395	0.290985	0.329579
	C198	C	-0.001094	0.296910	-0.154453
	C199	C	0.013892	0.232158	-0.032597
	C200	C	0.044137	0.261379	0.219664
	C201	C	-0.017905	0.263794	0.273506
	C202	C	0.011111	0.294261	0.022199
	C203	C	-0.013885	0.222679	-0.102428
	C204	C	0.071917	0.271413	0.124640
	C205	C	-0.027164	0.235930	0.342924
	C206	C	0.020934	0.322126	0.118069
	C207	C	-0.014760	0.193007	-0.212429
	C208	C	0.100503	0.269546	0.201449
	C209	C	-0.056744	0.234874	0.453080
	C210	C	0.018997	0.350718	0.041501
	H211	H	0.061982	0.165065	-0.237932
	H212	H	0.076326	0.236000	0.605594
	H213	H	-0.085176	0.311514	0.479562
	H214	H	-0.014106	0.326302	-0.364586
	H215	H	0.063357	0.216690	-0.039557
	H216	H	0.026315	0.240828	0.475117
	H217	H	-0.033699	0.313202	0.280945
	H218	H	-0.009188	0.276299	-0.234306
	H219	H	-0.035533	0.238478	-0.063614
	H220	H	0.071142	0.280688	-0.013807
	H221	H	-0.011255	0.214354	0.303786
	H222	H	0.030130	0.321401	0.256870
	H223	H	-0.036791	0.185993	-0.258875
	H224	H	0.121326	0.277994	0.125472
	H225	H	-0.063577	0.212784	0.499361
	H226	H	0.027311	0.371601	0.118060
	N227	N	0.011165	0.140164	-0.353225
	N228	N	0.133349	0.253789	0.435660
	N229	N	-0.109602	0.260503	0.595027
	N230	N	0.003438	0.383478	-0.193441
	C231	C	0.492956	0.420783	-0.164312
	C232	C	0.501928	0.430365	0.021033
	C233	C	0.503261	0.462325	0.089218
	C234	C	0.495692	0.486202	-0.024624
	C235	C	0.486561	0.476417	-0.209845
	C236	C	0.485216	0.444522	-0.278080
	C237	C	0.497047	0.520495	0.047209
	C238	C	0.507049	0.541836	-0.082035
	C239	C	0.508237	0.573842	-0.014929
	C240	C	0.499402	0.586062	0.184688
	C241	C	0.489455	0.564874	0.314446
	C242	C	0.488286	0.532895	0.247195
	H243	H	0.516324	0.589870	-0.116349
	H244	H	0.477942	0.437673	-0.421140
	H245	H	0.482455	0.573812	0.469377
	H246	H	0.508105	0.412242	0.109860
	H247	H	0.514788	0.532986	-0.236310
	H248	H	0.479751	0.494209	-0.299056
	H249	H	0.511073	0.468915	0.230894
	H250	H	0.479794	0.517268	0.349880
	C251	C	0.491551	0.387134	-0.240474
	H252	H	0.485288	0.382476	-0.390687
	C253	C	0.501056	0.619763	0.258726
	H254	H	0.495039	0.626571	0.419209
	C255	C	0.485269	1.081609	0.883863
	C256	C	0.502515	1.056398	0.753264
	C257	C	0.503425	1.025469	0.796826
	C258	C	0.487427	1.018351	0.974172
	C259	C	0.470261	1.043627	1.105074
	C260	C	0.468907	1.074518	1.059955
	C261	C	0.488839	0.985242	1.020729
	C262	C	0.495744	0.978261	1.204903
	C263	C	0.497911	0.947214	1.246446
	C264	C	0.492809	0.921774	1.107209
	C265	C	0.485502	0.928706	0.923933
	C266	C	0.483741	0.959741	0.881472
	H267	H	0.503864	0.942166	1.387924
	H268	H	0.454969	1.093436	1.161606
	H269	H	0.481045	0.909571	0.814654
	H270	H	0.515281	1.061445	0.616377
	H271	H	0.500160	0.997483	1.313706
	H272	H	0.457394	1.038616	1.241688
	H273	H	0.517312	1.006468	0.695227
	H274	H	0.477657	0.964682	0.740061
	C275	C	0.483894	1.114209	0.832989
	H276	H	0.468413	1.132539	0.935058
	C277	C	0.495262	0.888896	1.153665
	H278	H	0.491545	0.870381	1.035551
	C279	C	0.332054	0.234841	0.870920
	C280	C	0.306973	0.252223	1.001775
	C281	C	0.276037	0.253388	0.958251
	C282	C	0.268769	0.237514	0.780693
	C283	C	0.293912	0.220193	0.649585
	C284	C	0.324814	0.218595	0.694639
	C285	C	0.235645	0.239285	0.734262
	C286	C	0.228705	0.246165	0.549950
	C287	C	0.197634	0.248845	0.508985
	C288	C	0.172119	0.244306	0.648991
	C289	C	0.179009	0.236946	0.832234
	C290	C	0.210073	0.234660	0.874065
	H291	H	0.192623	0.254810	0.367474
	H292	H	0.343625	0.204559	0.592743
	H293	H	0.159814	0.232885	0.942055
	H294	H	0.312130	0.264910	1.138806
	H295	H	0.247984	0.250192	0.440610
	H296	H	0.288792	0.207410	0.512807
	H297	H	0.257156	0.267403	1.060046
	H298	H	0.214963	0.228556	1.015514
	C299	C	0.364668	0.233273	0.921703
	H300	H	0.382928	0.217794	0.819154
	C301	C	0.139195	0.247542	0.603818
	H302	H	0.120633	0.244285	0.722610
	C303	C	0.671085	0.243748	0.921014
	C304	C	0.680370	0.252645	0.735257
	C305	C	0.712232	0.254095	0.665831
	C306	C	0.736311	0.246717	0.778756
	C307	C	0.726827	0.237714	0.964549
	C308	C	0.695023	0.236248	1.034016
	C309	C	0.770501	0.248087	0.705016
	C310	C	0.792076	0.258325	0.832308
	C311	C	0.823978	0.259525	0.763012
	C312	C	0.835845	0.250454	0.563093
	C313	C	0.814421	0.240246	0.435334
	C314	C	0.782557	0.239070	0.504748
	H315	H	0.840195	0.267803	0.862867
	H316	H	0.688398	0.229049	1.177408
	H317	H	0.823082	0.233049	0.280219
	H318	H	0.662092	0.258657	0.647046
	H319	H	0.783483	0.266237	0.986735
	H320	H	0.744788	0.231091	1.053145
	H321	H	0.718589	0.261838	0.523832
	H322	H	0.766750	0.230367	0.403609
	C323	C	0.637533	0.242147	0.998047
	H324	H	0.633061	0.235923	1.148324
	C325	C	0.869396	0.252117	0.486256
	H326	H	0.875862	0.245700	0.325744
	C327	C	0.492730	0.242246	0.378194
	C328	C	0.497153	0.150659	0.615967
	C329	C	0.495222	0.333163	0.760909
	C330	C	0.401195	0.246356	0.139140
	C331	C	0.583545	0.245385	-0.002928
	C332	C	0.506217	0.177828	0.723714
	C333	C	0.466427	0.323374	0.709998
	C334	C	0.428305	0.255578	0.032106
	C335	C	0.573975	0.216495	0.047483
	C336	C	0.504789	0.207117	0.652876
	C337	C	0.465239	0.294068	0.596813
	C338	C	0.457580	0.254221	0.103262
	C339	C	0.544712	0.215098	0.160190
	C340	C	0.494671	0.210549	0.470866
	C341	C	0.492339	0.272636	0.534841
	C342	C	0.461062	0.244020	0.284921
	C343	C	0.523109	0.242073	0.222217
	C344	C	0.486145	0.183052	0.363135
	C345	C	0.520500	0.281632	0.601382
	C346	C	0.433634	0.235283	0.391812
	C347	C	0.531906	0.270333	0.156388
	C348	C	0.487589	0.153874	0.432429
	C349	C	0.521994	0.311175	0.711485
	C350	C	0.404470	0.236651	0.322187
	C351	C	0.561399	0.272036	0.046717
	H352	H	0.514828	0.175833	0.862937
	H353	H	0.445037	0.339441	0.753435
	H354	H	0.426266	0.264274	-0.106761
	H355	H	0.590173	0.195193	0.003932
	H356	H	0.512087	0.227478	0.739971
	H357	H	0.442726	0.288593	0.551748
	H358	H	0.477885	0.261661	0.016750
	H359	H	0.539398	0.192521	0.204792
	H360	H	0.478602	0.184644	0.220414
	H361	H	0.541953	0.265616	0.559315
	H362	H	0.435259	0.227660	0.534244
	H363	H	0.515764	0.291700	0.198600
	H364	H	0.481505	0.132955	0.344432
	H365	H	0.544376	0.318027	0.753114
	H366	H	0.383604	0.230414	0.409614
	H367	H	0.568083	0.294489	0.005535
	N368	N	0.499414	0.120410	0.674007
	N369	N	0.497189	0.364118	0.856714
	N370	N	0.370945	0.248667	0.081102
	N371	N	0.614408	0.247557	-0.098784
