data_Molecule from CHK

_cell_length_a		30.861831
_cell_length_b		30.859346
_cell_length_c		6.274073
_cell_angle_alpha	89.119359
_cell_angle_beta	90.886103
_cell_angle_gamma	104.996017
_symmetry_space_group_name_H-M	'P 1'
_symmetry_Int_Tables_number		1

loop_
	_symmetry_equiv_pos_as_xyz
	x,y,z

loop_
	_atom_site_label
	_atom_site_type_symbol
	_atom_site_fract_x
	_atom_site_fract_y
	_atom_site_fract_z
	C0	C	0.008572	0.760385	0.125682
	C1	C	-0.011732	0.639939	0.557121
	C2	C	0.017991	0.878030	0.538833
	C3	C	-0.112200	0.738457	-0.304212
	C4	C	0.125928	0.769663	-0.289368
	C5	C	0.010939	0.683196	0.619607
	C6	C	-0.019959	0.861502	0.409374
	C7	C	-0.069433	0.762931	-0.365175
	C8	C	0.109689	0.731932	-0.158231
	C9	C	0.018374	0.720388	0.483050
	C10	C	-0.021523	0.826938	0.264932
	C11	C	-0.032164	0.770889	-0.228871
	C12	C	0.075293	0.730513	-0.013143
	C13	C	0.001490	0.717500	0.275888
	C14	C	0.013187	0.805333	0.251780
	C15	C	-0.034423	0.752814	-0.023949
	C16	C	0.053480	0.765093	-0.001119
	C17	C	-0.021867	0.673898	0.212359
	C18	C	0.053352	0.827360	0.353929
	C19	C	-0.077686	0.728458	0.039391
	C20	C	0.075276	0.805134	-0.104906
	C21	C	-0.029123	0.636427	0.349467
	C22	C	0.055992	0.863643	0.488438
	C23	C	-0.115191	0.720493	-0.097680
	C24	C	0.111447	0.807667	-0.240017
	H25	H	0.021108	0.687930	0.783541
	H26	H	-0.048643	0.875302	0.421776
	H27	H	-0.065173	0.774143	-0.527905
	H28	H	0.123630	0.703323	-0.169678
	H29	H	0.037483	0.752435	0.540504
	H30	H	-0.051373	0.815210	0.167318
	H31	H	-0.000510	0.791235	-0.284958
	H32	H	0.063885	0.700851	0.085974
	H33	H	-0.035154	0.668865	0.051190
	H34	H	0.082801	0.815069	0.331162
	H35	H	-0.082390	0.714882	0.200175
	H36	H	0.062952	0.834582	-0.082698
	H37	H	-0.048626	0.603942	0.296027
	H38	H	0.087306	0.880577	0.565021
	H39	H	-0.147290	0.699953	-0.045080
	H40	H	0.128229	0.838889	-0.317779
	N41	N	-0.018612	0.603831	0.706369
	N42	N	0.021129	0.907403	0.710876
	N43	N	-0.148246	0.730547	-0.453966
	N44	N	0.155234	0.772542	-0.461549
	C45	C	0.311698	0.757386	0.257586
	C46	C	0.294135	0.716205	0.361124
	C47	C	0.270100	0.713272	0.549585
	C48	C	0.261857	0.751196	0.646983
	C49	C	0.279671	0.792378	0.540385
	C50	C	0.303951	0.795465	0.352620
	C51	C	0.235776	0.747972	0.850593
	C52	C	0.227589	0.785907	0.948131
	C53	C	0.203569	0.782981	1.136628
	C54	C	0.185969	0.741799	1.240086
	C55	C	0.193655	0.703708	1.144905
	C56	C	0.217914	0.706786	0.957073
	H57	H	0.197489	0.812869	1.205189
	H58	H	0.316800	0.827831	0.275782
	H59	H	0.180780	0.671341	1.221699
	H60	H	0.300261	0.686327	0.292686
	H61	H	0.239419	0.818782	0.876038
	H62	H	0.274340	0.823039	0.602304
	H63	H	0.258313	0.680403	0.621808
	H64	H	0.223182	0.676111	0.894997
	C65	C	0.338564	0.760962	0.061433
	H66	H	0.356277	0.795259	0.013496
	C67	C	0.159191	0.738245	1.436520
	H68	H	0.141251	0.703973	1.483768
	C69	C	0.679172	0.740022	0.271411
	C70	C	0.711722	0.779518	0.319878
	C71	C	0.738362	0.782821	0.503992
	C72	C	0.734258	0.747044	0.651732
	C73	C	0.701734	0.707369	0.598795
	C74	C	0.675102	0.703940	0.415347
	C75	C	0.762535	0.750717	0.852355
	C76	C	0.760792	0.714048	0.992323
	C77	C	0.787271	0.717534	1.177055
	C78	C	0.817629	0.757990	1.232730
	C79	C	0.819353	0.794897	1.096472
	C80	C	0.792564	0.791394	0.913521
	H81	H	0.785159	0.688589	1.280390
	H82	H	0.649984	0.672909	0.383920
	H83	H	0.842482	0.826791	1.134558
	H84	H	0.715621	0.807806	0.210689
	H85	H	0.738713	0.681529	0.957770
	H86	H	0.696217	0.678402	0.703559
	H87	H	0.762937	0.814315	0.530217
	H88	H	0.795429	0.821339	0.817521
	C89	C	0.648132	0.735908	0.086572
	H90	H	0.625071	0.702323	0.069502
	C91	C	0.848633	0.762471	1.417919
	H92	H	0.870786	0.796429	1.437793
	C93	C	-0.006008	0.433049	0.983283
	C94	C	0.034170	0.463790	0.926992
	C95	C	0.037195	0.490298	0.742577
	C96	C	0.000303	0.488205	0.603614
	C97	C	-0.040120	0.457865	0.665621
	C98	C	-0.043154	0.431024	0.848212
	C99	C	0.003530	0.516421	0.403011
	C100	C	-0.032243	0.511579	0.254741
	C101	C	-0.029375	0.538189	0.070727
	C102	C	0.009656	0.571430	0.022901
	C103	C	0.045726	0.576270	0.167500
	C104	C	0.042716	0.549700	0.350959
	H105	H	-0.057644	0.533709	-0.038936
	H106	H	-0.074839	0.407597	0.886845
	H107	H	0.076378	0.601963	0.136670
	H108	H	0.063296	0.466126	1.029376
	H109	H	-0.063344	0.486376	0.280338
	H110	H	-0.070225	0.454809	0.570570
	H111	H	0.069548	0.512606	0.707160
	H112	H	0.071587	0.555882	0.456540
	C113	C	-0.009808	0.401770	1.167119
	H114	H	-0.043570	0.379303	1.188105
	C115	C	0.013279	0.602380	-0.162018
	H116	H	0.046520	0.626114	-0.178279
	C117	C	0.009292	0.064477	0.993284
	C118	C	-0.032098	0.047194	0.891095
	C119	C	-0.035520	0.023121	0.702513
	C120	C	0.002095	0.014565	0.603584
	C121	C	0.043506	0.032170	0.708617
	C122	C	0.047076	0.056463	0.896597
	C123	C	-0.001672	-0.011598	0.399937
	C124	C	0.035938	-0.020180	0.301083
	C125	C	0.032510	-0.044277	0.112571
	C126	C	-0.008887	-0.061606	0.010520
	C127	C	-0.046673	-0.053608	0.107263
	C128	C	-0.043093	-0.029261	0.295082
	H129	H	0.062169	-0.050620	0.042867
	H130	H	0.079591	0.069104	0.972339
	H131	H	-0.079199	-0.066322	0.031735
	H132	H	-0.061761	0.053497	0.960941
	H133	H	0.068949	-0.008571	0.372032
	H134	H	0.073964	0.026645	0.645307
	H135	H	-0.068528	0.011518	0.631538
	H136	H	-0.073551	-0.023750	0.358453
	C137	C	0.013301	0.090938	1.191039
	H138	H	0.047721	0.108090	1.239422
	C139	C	-0.012937	-0.088436	-0.186033
	H140	H	-0.047326	-0.106208	-0.232198
	C141	C	0.489531	0.739100	0.374225
	C142	C	0.371848	0.729619	0.787206
	C143	C	0.509824	0.859665	-0.056406
	C144	C	0.480389	0.621554	-0.039281
	C145	C	0.610147	0.760241	0.805047
	C146	C	0.388118	0.767380	0.656269
	C147	C	0.486700	0.816513	-0.118436
	C148	C	0.518180	0.637982	0.091284
	C149	C	0.567119	0.736633	0.866550
	C150	C	0.422694	0.768909	0.512042
	C151	C	0.479329	0.779279	0.017851
	C152	C	0.519613	0.672498	0.235779
	C153	C	0.529905	0.728979	0.730055
	C154	C	0.444663	0.734436	0.501110
	C155	C	0.496796	0.781980	0.223959
	C156	C	0.484923	0.694146	0.248116
	C157	C	0.532474	0.746602	0.524264
	C158	C	0.422699	0.694283	0.603567
	C159	C	0.520251	0.825531	0.287650
	C160	C	0.444867	0.672206	0.144823
	C161	C	0.575910	0.770470	0.460953
	C162	C	0.386416	0.691656	0.738064
	C163	C	0.527496	0.863040	0.150760
	C164	C	0.442356	0.635982	0.010062
	C165	C	0.613398	0.778024	0.598106
	H166	H	0.373970	0.795869	0.666801
	H167	H	0.475961	0.811909	-0.281685
	H168	H	0.546785	0.624026	0.080146
	H169	H	0.562576	0.725764	1.029640
	H170	H	0.434041	0.798509	0.412454
	H171	H	0.459677	0.747376	-0.038794
	H172	H	0.549251	0.683988	0.335011
	H173	H	0.498107	0.709000	0.786306
	H174	H	0.435077	0.664867	0.581409
	H175	H	0.533662	0.830467	0.448655
	H176	H	0.415396	0.684493	0.167039
	H177	H	0.580762	0.783974	0.300094
	H178	H	0.369608	0.660392	0.815432
	H179	H	0.547166	0.895466	0.204108
	H180	H	0.411122	0.619120	-0.067401
	H181	H	0.645707	0.798047	0.545169
	N182	N	0.342488	0.726688	0.959207
	N183	N	0.516825	0.895801	-0.205510
	N184	N	0.477487	0.592153	-0.211110
	N185	N	0.646226	0.767599	0.954602
	C186	C	-0.007789	0.242659	0.876108
	C187	C	-0.017948	0.123565	0.469301
	C188	C	0.112277	0.266316	1.310873
	C189	C	-0.126922	0.232208	1.282890
	C190	C	0.015827	0.362683	0.441075
	C191	C	0.020542	0.141291	0.593522
	C192	C	0.069678	0.241036	1.369930
	C193	C	-0.109257	0.270739	1.158835
	C194	C	-0.009557	0.320097	0.382340
	C195	C	0.022224	0.176095	0.736657
	C196	C	0.032573	0.232670	1.232551
	C197	C	-0.074441	0.272511	1.015675
	C198	C	-0.017928	0.283013	0.519853
	C199	C	-0.012414	0.197811	0.749115
	C200	C	0.035134	0.250044	1.026220
	C201	C	-0.052649	0.237933	1.003064
	C202	C	-0.000459	0.285581	0.726018
	C203	C	-0.052590	0.175874	0.646803
	C204	C	0.078525	0.274022	0.962818
	C205	C	-0.074515	0.197716	1.105236
	C206	C	0.023586	0.328970	0.789187
	C207	C	-0.055469	0.139220	0.514392
	C208	C	0.115870	0.282391	1.100915
	C209	C	-0.111184	0.194743	1.237629
	C210	C	0.031974	0.366290	0.650922
	H211	H	0.049275	0.127556	0.581339
	H212	H	0.065233	0.229991	1.532809
	H213	H	-0.123050	0.299432	1.171163
	H214	H	-0.020655	0.315633	0.219541
	H215	H	0.052139	0.187915	0.833729
	H216	H	0.000896	0.212341	1.288607
	H217	H	-0.062662	0.302449	0.918718
	H218	H	-0.038317	0.251340	0.464015
	H219	H	-0.081913	0.188446	0.668184
	H220	H	0.083446	0.287068	0.801217
	H221	H	-0.061870	0.168438	1.083780
	H222	H	0.036681	0.333905	0.950714
	H223	H	-0.086759	0.122565	0.436830
	H224	H	0.148184	0.302238	1.047337
	H225	H	-0.127786	0.163417	1.315037
	H226	H	0.051907	0.398592	0.704257
	N227	N	-0.020812	0.095219	0.293245
	N228	N	0.148677	0.272906	1.458122
	N229	N	-0.155286	0.229246	1.458923
	N230	N	0.022493	0.399044	0.293586
	C231	C	0.492250	0.435985	-0.493612
	C232	C	0.533430	0.453337	-0.389706
	C233	C	0.536418	0.477305	-0.200985
	C234	C	0.498540	0.485605	-0.103405
	C235	C	0.457315	0.467700	-0.209475
	C236	C	0.454179	0.443512	-0.397572
	C237	C	0.501828	0.511657	0.100364
	C238	C	0.463933	0.519856	0.198200
	C239	C	0.466915	0.543831	0.386887
	C240	C	0.508108	0.561303	0.490490
	C241	C	0.546196	0.553871	0.394212
	C242	C	0.543063	0.529653	0.206200
	H243	H	0.437052	0.549907	0.455693
	H244	H	0.421785	0.430648	-0.474139
	H245	H	0.578602	0.566853	0.470472
	H246	H	0.563281	0.447223	-0.458460
	H247	H	0.431044	0.508070	0.126188
	H248	H	0.426655	0.472906	-0.146947
	H249	H	0.569292	0.489004	-0.128714
	H250	H	0.573738	0.524548	0.143368
	C251	C	0.488621	0.409386	-0.690742
	H252	H	0.454294	0.391974	-0.739481
	C253	C	0.511739	0.588255	0.686446
	H254	H	0.546012	0.606338	0.732975
	C255	C	0.505973	1.066645	-0.483738
	C256	C	0.465445	1.036673	-0.425854
	C257	C	0.462141	1.010225	-0.241117
	C258	C	0.499066	1.011653	-0.103242
	C259	C	0.539751	1.041442	-0.166010
	C260	C	0.543064	1.068238	-0.348868
	C261	C	0.495571	0.983436	0.097446
	C262	C	0.531300	0.987963	0.245733
	C263	C	0.528163	0.961371	0.429923
	C264	C	0.488848	0.928559	0.478261
	C265	C	0.452908	0.923867	0.332997
	C266	C	0.456188	0.950407	0.149316
	H267	H	0.556414	0.965583	0.539543
	H268	H	0.574969	1.091207	-0.388185
	H269	H	0.422112	0.898361	0.363672
	H270	H	0.436298	1.034843	-0.527458
	H271	H	0.562580	1.012894	0.219967
	H272	H	0.569852	1.044045	-0.071472
	H273	H	0.429551	0.988533	-0.204397
	H274	H	0.427403	0.944361	0.043211
	C275	C	0.510112	1.097970	-0.667586
	H276	H	0.544022	1.120148	-0.688311
	C277	C	0.485021	0.897468	0.662768
	H278	H	0.451682	0.873896	0.678670
	C279	C	0.320761	0.259127	0.728857
	C280	C	0.287431	0.220190	0.680523
	C281	C	0.260842	0.217497	0.496542
	C282	C	0.265909	0.253307	0.348362
	C283	C	0.299424	0.292324	0.400332
	C284	C	0.325956	0.295169	0.583872
	C285	C	0.237743	0.250234	0.147681
	C286	C	0.239793	0.287257	0.009627
	C287	C	0.213352	0.284356	-0.174967
	C288	C	0.182781	0.244159	-0.232542
	C289	C	0.180594	0.206959	-0.097605
	C290	C	0.207376	0.209866	0.085120
	H291	H	0.215652	0.313576	-0.276658
	H292	H	0.351878	0.325664	0.614506
	H293	H	0.157153	0.175309	-0.136701
	H294	H	0.282825	0.191864	0.789914
	H295	H	0.261986	0.319615	0.046088
	H296	H	0.305879	0.321145	0.294366
	H297	H	0.235503	0.186495	0.470802
	H298	H	0.204277	0.179700	0.179763
	C299	C	0.352004	0.262293	0.912452
	H300	H	0.376046	0.295354	0.928612
	C301	C	0.151392	0.240529	-0.415866
	H302	H	0.128859	0.206802	-0.437082
	C303	C	0.688010	0.240589	0.742768
	C304	C	0.705163	0.282007	0.640598
	C305	C	0.729200	0.285511	0.451884
	C306	C	0.737768	0.247943	0.352521
	C307	C	0.720023	0.206464	0.456724
	C308	C	0.695774	0.202814	0.644859
	C309	C	0.763929	0.251803	0.148834
	C310	C	0.772667	0.214261	0.049965
	C311	C	0.796714	0.217769	-0.138722
	C312	C	0.813723	0.259166	-0.241310
	C313	C	0.805784	0.296915	-0.143913
	C314	C	0.781507	0.293259	0.044140
	H315	H	0.803159	0.188160	-0.208501
	H316	H	0.683027	0.170245	0.719932
	H317	H	0.818410	0.329467	-0.219336
	H318	H	0.698865	0.311642	0.710795
	H319	H	0.761259	0.181252	0.121161
	H320	H	0.725369	0.176006	0.392501
	H321	H	0.740785	0.318552	0.381205
	H322	H	0.775970	0.323687	0.107783
	C323	C	0.661390	0.236481	0.940063
	H324	H	0.644119	0.202046	0.987696
	C325	C	0.840420	0.263294	-0.438359
	H326	H	0.857343	0.297758	-0.487047
	C327	C	0.509641	0.257775	0.624602
	C328	C	0.484943	0.137667	1.059344
	C329	C	0.520157	0.376897	1.031811
	C330	C	0.389708	0.235830	0.189306
	C331	C	0.628780	0.267669	0.218702
	C332	C	0.511052	0.180002	1.117449
	C333	C	0.481800	0.359473	0.906273
	C334	C	0.432688	0.259965	0.129657
	C335	C	0.610845	0.229117	0.342205
	C336	C	0.519774	0.217086	0.979887
	C337	C	0.480081	0.324693	0.763007
	C338	C	0.469744	0.267768	0.267156
	C339	C	0.576009	0.227480	0.485091
	C340	C	0.501955	0.214793	0.774416
	C341	C	0.514495	0.302659	0.751731
	C342	C	0.466801	0.250757	0.474120
	C343	C	0.554501	0.262263	0.498052
	C344	C	0.477277	0.171605	0.711615
	C345	C	0.554620	0.324325	0.855232
	C346	C	0.423149	0.227577	0.537588
	C347	C	0.576633	0.302463	0.396492
	C348	C	0.468532	0.134281	0.849916
	C349	C	0.557563	0.360968	0.987862
	C350	C	0.385802	0.219938	0.399590
	C351	C	0.613296	0.305275	0.264273
	H352	H	0.522474	0.184298	1.279845
	H353	H	0.453215	0.373461	0.917471
	H354	H	0.437517	0.270526	-0.033702
	H355	H	0.624431	0.200293	0.329602
	H356	H	0.540742	0.248544	1.035117
	H357	H	0.450294	0.313160	0.664832
	H358	H	0.501683	0.287382	0.210654
	H359	H	0.563982	0.197507	0.581545
	H360	H	0.464017	0.166832	0.550311
	H361	H	0.583849	0.311573	0.834463
	H362	H	0.418012	0.214603	0.699229
	H363	H	0.564178	0.331851	0.418184
	H364	H	0.448134	0.102152	0.796897
	H365	H	0.588810	0.377408	1.066371
	H366	H	0.353201	0.200860	0.453592
	H367	H	0.630084	0.336586	0.187233
	N368	N	0.477872	0.101282	1.206829
	N369	N	0.522889	0.405286	1.207690
	N370	N	0.353302	0.230109	0.042435
	N371	N	0.657167	0.270548	0.042836
