data_Molecule from CHK

_cell_length_a		41.021806
_cell_length_b		41.718051
_cell_length_c		6.955784
_cell_angle_alpha	96.057087
_cell_angle_beta	82.316323
_cell_angle_gamma	87.924265
_symmetry_space_group_name_H-M	'P 1'
_symmetry_Int_Tables_number		1

loop_
	_symmetry_equiv_pos_as_xyz
	x,y,z

loop_
	_atom_site_label
	_atom_site_type_symbol
	_atom_site_fract_x
	_atom_site_fract_y
	_atom_site_fract_z
	C0	C	-0.010253	0.741051	0.278793
	C1	C	-0.009016	0.654546	0.599722
	C2	C	-0.012051	0.834466	0.650909
	C3	C	-0.101222	0.743189	-0.005430
	C4	C	0.084427	0.741077	-0.115913
	C5	C	-0.002816	0.685026	0.687717
	C6	C	-0.040248	0.824089	0.573733
	C7	C	-0.072385	0.756883	-0.084654
	C8	C	0.074176	0.713040	-0.035990
	C9	C	-0.002780	0.712230	0.587086
	C10	C	-0.040009	0.794279	0.461470
	C11	C	-0.043693	0.755908	0.003012
	C12	C	0.044092	0.712772	0.084158
	C13	C	-0.009815	0.710728	0.395172
	C14	C	-0.011732	0.773472	0.418790
	C15	C	-0.041726	0.740839	0.171827
	C16	C	0.022630	0.740260	0.131627
	C17	C	-0.016895	0.680148	0.309427
	C18	C	0.016264	0.783980	0.498085
	C19	C	-0.070708	0.727310	0.250924
	C20	C	0.033243	0.768209	0.051043
	C21	C	-0.016533	0.652720	0.408147
	C22	C	0.016173	0.813671	0.611261
	C23	C	-0.099377	0.727974	0.163553
	C24	C	0.063260	0.768685	-0.069516
	H25	H	0.002453	0.687204	0.836643
	H26	H	-0.062616	0.839464	0.603276
	H27	H	-0.071862	0.769088	-0.214429
	H28	H	0.089814	0.691124	-0.069707
	H29	H	0.002799	0.734953	0.661533
	H30	H	-0.062281	0.787432	0.403828
	H31	H	-0.022528	0.767481	-0.062384
	H32	H	0.037796	0.690564	0.143848
	H33	H	-0.022863	0.677872	0.161581
	H34	H	0.038701	0.768678	0.467696
	H35	H	-0.071039	0.716247	0.385248
	H36	H	0.018026	0.790368	0.087395
	H37	H	-0.022618	0.629749	0.337360
	H38	H	0.038393	0.821475	0.666604
	H39	H	-0.120997	0.716505	0.226261
	H40	H	0.071063	0.790856	-0.125527
	N41	N	-0.009464	0.627824	0.706799
	N42	N	-0.010720	0.865490	0.750271
	N43	N	-0.130920	0.743015	-0.084368
	N44	N	0.115832	0.742700	-0.223703
	C45	C	0.339870	0.741703	0.253670
	C46	C	0.331343	0.754471	0.449608
	C47	C	0.299518	0.752861	0.545506
	C48	C	0.274679	0.738763	0.449055
	C49	C	0.283342	0.725939	0.252929
	C50	C	0.315239	0.727211	0.157603
	C51	C	0.240491	0.737348	0.550292
	C52	C	0.213005	0.745311	0.460425
	C53	C	0.181068	0.744161	0.555682
	C54	C	0.175166	0.734623	0.744210
	C55	C	0.202553	0.726540	0.834172
	C56	C	0.234475	0.728034	0.739686
	H57	H	0.160124	0.750776	0.485427
	H58	H	0.321347	0.717091	0.006432
	H59	H	0.198496	0.719092	0.979736
	H60	H	0.350104	0.765846	0.525306
	H61	H	0.216964	0.753366	0.316379
	H62	H	0.264762	0.714326	0.177117
	H63	H	0.293392	0.763428	0.695848
	H64	H	0.255279	0.721391	0.810690
	C65	C	0.373471	0.743473	0.150550
	H66	H	0.378270	0.731293	0.000669
	C67	C	0.141443	0.733643	0.847354
	H68	H	0.139410	0.725070	0.992484
	C69	C	0.678298	0.745077	0.294125
	C70	C	0.702315	0.765899	0.227426
	C71	C	0.731856	0.767978	0.304666
	C72	C	0.739136	0.749153	0.451483
	C73	C	0.714807	0.728376	0.517668
	C74	C	0.685134	0.726450	0.441728
	C75	C	0.771249	0.750750	0.531127
	C76	C	0.774777	0.741607	0.716748
	C77	C	0.804935	0.742142	0.787718
	C78	C	0.833121	0.752277	0.678011
	C79	C	0.829693	0.762167	0.494962
	C80	C	0.799642	0.761188	0.423073
	H81	H	0.807039	0.734507	0.929983
	H82	H	0.666944	0.710233	0.496597
	H83	H	0.850967	0.770448	0.407529
	H84	H	0.697344	0.780696	0.114399
	H85	H	0.753555	0.734356	0.809163
	H86	H	0.719296	0.712927	0.628060
	H87	H	0.749218	0.785063	0.251856
	H88	H	0.798598	0.768062	0.278139
	C89	C	0.647055	0.742640	0.211189
	H90	H	0.629581	0.726336	0.277683
	C91	C	0.865246	0.752753	0.751936
	H92	H	0.885391	0.761588	0.654664
	C93	C	0.004968	0.435882	1.297048
	C94	C	0.015105	0.432720	1.094968
	C95	C	0.015729	0.459354	0.990281
	C96	C	0.006240	0.490596	1.082143
	C97	C	-0.003732	0.493601	1.285246
	C98	C	-0.004373	0.466947	1.390233
	C99	C	0.006639	0.519103	0.968701
	C100	C	-0.015044	0.546272	1.029369
	C101	C	-0.014719	0.572808	0.923771
	C102	C	0.007174	0.573487	0.751312
	C103	C	0.028750	0.546441	0.688948
	C104	C	0.028572	0.520013	0.795580
	H105	H	-0.031782	0.593426	0.972994
	H106	H	-0.012405	0.470080	1.546253
	H107	H	0.046014	0.546457	0.556550
	H108	H	0.022457	0.408846	1.021059
	H109	H	-0.032997	0.546412	1.158755
	H110	H	-0.010656	0.517251	1.363211
	H111	H	0.023187	0.455644	0.834012
	H112	H	0.046305	0.500011	0.745505
	C113	C	0.004541	0.407366	1.406219
	H114	H	-0.003104	0.411858	1.564477
	C115	C	0.007433	0.601722	0.640071
	H116	H	0.023544	0.599492	0.499297
	C117	C	-0.008369	0.085307	1.215419
	C118	C	0.005616	0.076304	1.020982
	C119	C	0.003447	0.045117	0.931921
	C120	C	-0.012411	0.021432	1.034234
	C121	C	-0.026507	0.030593	1.228711
	C122	C	-0.024708	0.061854	1.317038
	C123	C	-0.014249	-0.012153	0.941346
	C124	C	-0.007392	-0.038872	1.039535
	C125	C	-0.008948	-0.070297	0.952914
	C126	C	-0.017853	-0.076425	0.765132
	C127	C	-0.024876	-0.049800	0.666938
	C128	C	-0.022943	-0.018382	0.752768
	H129	H	-0.003137	-0.090653	1.029493
	H130	H	-0.035815	0.068356	1.467116
	H131	H	-0.031839	-0.054052	0.521865
	H132	H	0.018363	0.094183	0.941063
	H133	H	0.000180	-0.034718	1.183135
	H134	H	-0.039523	0.012927	1.308829
	H135	H	0.014934	0.038575	0.782585
	H136	H	-0.028720	0.001859	0.675452
	C137	C	-0.006037	0.118166	1.312028
	H138	H	-0.019453	0.123360	1.460654
	C139	C	-0.019037	-0.109659	0.671036
	H140	H	-0.026945	-0.112022	0.525455
	C141	C	0.520380	0.760042	0.710660
	C142	C	0.427305	0.759420	1.117281
	C143	C	0.517636	0.851329	0.434684
	C144	C	0.517184	0.669051	0.322481
	C145	C	0.611954	0.756908	0.986848
	C146	C	0.438428	0.788165	1.051016
	C147	C	0.507946	0.822422	0.341396
	C148	C	0.546731	0.678741	0.384809
	C149	C	0.582037	0.747339	1.081167
	C150	C	0.468002	0.788605	0.926182
	C151	C	0.508824	0.793558	0.426406
	C152	C	0.548061	0.707728	0.503264
	C153	C	0.553229	0.747988	0.994654
	C154	C	0.488284	0.760643	0.863976
	C155	C	0.519989	0.791687	0.606522
	C156	C	0.520229	0.728723	0.563092
	C157	C	0.552376	0.758843	0.811808
	C158	C	0.477062	0.732027	0.933428
	C159	C	0.530415	0.820526	0.696954
	C160	C	0.490898	0.719074	0.496135
	C161	C	0.582308	0.768673	0.718649
	C162	C	0.447156	0.731238	1.054391
	C163	C	0.529541	0.849407	0.613226
	C164	C	0.489196	0.689804	0.381586
	C165	C	0.611170	0.768042	0.804088
	H166	H	0.423163	0.810157	1.095109
	H167	H	0.499675	0.821946	0.200151
	H168	H	0.568591	0.662834	0.343054
	H169	H	0.580660	0.739648	1.225359
	H170	H	0.474825	0.811234	0.873588
	H171	H	0.500493	0.772181	0.349815
	H172	H	0.571189	0.713519	0.553606
	H173	H	0.531036	0.739898	1.072776
	H174	H	0.491942	0.709804	0.888933
	H175	H	0.539285	0.820350	0.836860
	H176	H	0.468774	0.734602	0.538684
	H177	H	0.582916	0.777177	0.576276
	H178	H	0.438924	0.708568	1.101021
	H179	H	0.538005	0.871155	0.686673
	H180	H	0.465922	0.682750	0.337425
	H181	H	0.633724	0.776315	0.729450
	N182	N	0.395943	0.758739	1.227117
	N183	N	0.517558	0.881151	0.359209
	N184	N	0.515278	0.638245	0.220960
	N185	N	0.641412	0.757859	1.068313
	C186	C	0.012798	0.262469	0.716978
	C187	C	0.012111	0.170045	0.340190
	C188	C	0.102956	0.263509	1.008221
	C189	C	-0.081498	0.260071	1.109115
	C190	C	0.012914	0.351477	0.418064
	C191	C	0.041429	0.180905	0.400121
	C192	C	0.073652	0.251457	1.094212
	C193	C	-0.070164	0.289235	1.050441
	C194	C	0.002634	0.322401	0.331640
	C195	C	0.041945	0.210280	0.515999
	C196	C	0.045312	0.250906	1.002983
	C197	C	-0.040279	0.290245	0.929257
	C198	C	0.002226	0.294346	0.424692
	C199	C	0.013679	0.230858	0.570643
	C200	C	0.044512	0.262158	0.821230
	C201	C	-0.019561	0.262577	0.867495
	C202	C	0.012115	0.293716	0.609134
	C203	C	-0.015160	0.220498	0.500358
	C204	C	0.074195	0.273254	0.732828
	C205	C	-0.030387	0.233767	0.936320
	C206	C	0.021817	0.323124	0.696822
	C207	C	-0.016055	0.190855	0.388320
	C208	C	0.102568	0.273942	0.823258
	C209	C	-0.060584	0.232401	1.053456
	C210	C	0.022141	0.351311	0.605078
	H211	H	0.063634	0.165414	0.361039
	H212	H	0.072111	0.243215	1.237017
	H213	H	-0.085629	0.311077	1.095450
	H214	H	-0.005051	0.322025	0.188578
	H215	H	0.064796	0.216864	0.567291
	H216	H	0.023442	0.241444	1.076266
	H217	H	-0.033452	0.313137	0.880366
	H218	H	-0.006099	0.272727	0.350957
	H219	H	-0.037532	0.235798	0.538088
	H220	H	0.075001	0.281676	0.590154
	H221	H	-0.014989	0.211818	0.894024
	H222	H	0.029398	0.323850	0.840657
	H223	H	-0.038867	0.183450	0.339137
	H224	H	0.124977	0.282934	0.751449
	H225	H	-0.068329	0.209653	1.101278
	H226	H	0.030638	0.373059	0.677427
	N227	N	0.011298	0.139512	0.233325
	N228	N	0.132388	0.264340	1.090051
	N229	N	-0.112450	0.258996	1.222995
	N230	N	0.012247	0.379058	0.319388
	C231	C	0.480572	0.422663	-0.226695
	C232	C	0.490072	0.428500	-0.040235
	C233	C	0.492603	0.459831	0.045707
	C234	C	0.486082	0.486740	-0.051690
	C235	C	0.476540	0.480780	-0.238334
	C236	C	0.473658	0.449491	-0.323442
	C237	C	0.489082	0.520289	0.038985
	C238	C	0.504853	0.543520	-0.067766
	C239	C	0.507943	0.574754	0.017919
	C240	C	0.494987	0.584325	0.213472
	C241	C	0.479026	0.561252	0.320231
	C242	C	0.476282	0.529933	0.235103
	H243	H	0.520580	0.592250	-0.065778
	H244	H	0.466095	0.445509	-0.467138
	H245	H	0.468867	0.568127	0.471614
	H246	H	0.495663	0.407984	0.035572
	H247	H	0.515539	0.536583	-0.218230
	H248	H	0.470843	0.501155	-0.314741
	H249	H	0.500698	0.463713	0.188042
	H250	H	0.463479	0.512619	0.319185
	C251	C	0.478261	0.389601	-0.320844
	H252	H	0.469960	0.387719	-0.465418
	C253	C	0.498364	0.617269	0.306243
	H254	H	0.486064	0.622874	0.457242
	C255	C	0.498118	1.080476	0.852404
	C256	C	0.491030	1.053766	0.727590
	C257	C	0.493007	1.022587	0.780737
	C258	C	0.501740	1.016437	0.962827
	C259	C	0.508868	1.043421	1.086922
	C260	C	0.507278	1.074580	1.033059
	C261	C	0.502825	0.983077	1.023412
	C262	C	0.521967	0.974742	1.165977
	C263	C	0.522073	0.944053	1.227305
	C264	C	0.503278	0.919910	1.147999
	C265	C	0.484740	0.927701	1.002483
	C266	C	0.484423	0.958508	0.942653
	H267	H	0.536925	0.938334	1.338186
	H268	H	0.513025	1.094712	1.132532
	H269	H	0.470195	0.909409	0.937443
	H270	H	0.483824	1.057849	0.587420
	H271	H	0.537531	0.992292	1.228255
	H272	H	0.515143	1.040203	1.230204
	H273	H	0.488091	1.002698	0.677157
	H274	H	0.468931	0.963653	0.834109
	C275	C	0.495834	1.113571	0.795765
	H276	H	0.502519	1.132670	0.901947
	C277	C	0.502693	0.887615	1.217117
	H278	H	0.488088	0.870157	1.141286
	C279	C	0.324292	0.257375	0.697763
	C280	C	0.296092	0.247350	0.807874
	C281	C	0.265785	0.247399	0.738589
	C282	C	0.262128	0.256932	0.554033
	C283	C	0.290546	0.267254	0.445603
	C284	C	0.320741	0.267686	0.515902
	C285	C	0.229965	0.255554	0.474778
	C286	C	0.222780	0.274390	0.327789
	C287	C	0.193283	0.272348	0.250002
	C288	C	0.169232	0.251521	0.316111
	C289	C	0.175857	0.233079	0.464966
	C290	C	0.205490	0.234954	0.541374
	H291	H	0.188405	0.287103	0.136605
	H292	H	0.342043	0.275807	0.427913
	H293	H	0.157566	0.216976	0.520100
	H294	H	0.298302	0.239301	0.949006
	H295	H	0.240204	0.291418	0.274999
	H296	H	0.289425	0.274361	0.301275
	H297	H	0.244581	0.240174	0.831271
	H298	H	0.209816	0.219564	0.652347
	C299	C	0.356751	0.256483	0.767525
	H300	H	0.376875	0.265233	0.669760
	C301	C	0.137958	0.249210	0.233397
	H302	H	0.120423	0.233062	0.300833
	C303	C	0.667873	0.233569	0.755811
	C304	C	0.673481	0.243121	0.567213
	C305	C	0.705304	0.244182	0.470165
	C306	C	0.732959	0.236084	0.558184
	C307	C	0.727240	0.226549	0.747114
	C308	C	0.695427	0.225109	0.843308
	C309	C	0.767020	0.237504	0.455216
	C310	C	0.791896	0.252018	0.549421
	C311	C	0.823552	0.253821	0.451544
	C312	C	0.831887	0.240741	0.256054
	C313	C	0.807190	0.225922	0.162102
	C314	C	0.775451	0.224485	0.259308
	H315	H	0.842339	0.265558	0.525300
	H316	H	0.691600	0.217490	0.988490
	H317	H	0.813126	0.215676	0.011076
	H318	H	0.652410	0.249866	0.498439
	H319	H	0.785911	0.262766	0.699482
	H320	H	0.748195	0.219715	0.816310
	H321	H	0.709070	0.252281	0.326184
	H322	H	0.756817	0.212620	0.185184
	C323	C	0.634278	0.232622	0.860711
	H324	H	0.632436	0.223719	1.004895
	C325	C	0.865180	0.243021	0.149956
	H326	H	0.869833	0.230597	0.000636
	C327	C	0.481769	0.240343	0.286380
	C328	C	0.484085	0.149422	0.567243
	C329	C	0.483876	0.333691	0.652944
	C330	C	0.391004	0.243940	0.001336
	C331	C	0.577377	0.240826	-0.096500
	C332	C	0.494670	0.178188	0.657274
	C333	C	0.454841	0.323892	0.583600
	C334	C	0.420717	0.255141	-0.085397
	C335	C	0.566142	0.212258	-0.027441
	C336	C	0.493321	0.207092	0.572785
	C337	C	0.453813	0.294039	0.473627
	C338	C	0.449457	0.253614	0.001539
	C339	C	0.535677	0.211851	0.088638
	C340	C	0.481949	0.208935	0.393116
	C341	C	0.481251	0.272126	0.431051
	C342	C	0.450220	0.241404	0.180741
	C343	C	0.514518	0.239531	0.138126
	C344	C	0.471555	0.180038	0.303379
	C345	C	0.509709	0.281619	0.508895
	C346	C	0.420289	0.230790	0.268751
	C347	C	0.525478	0.267658	0.061303
	C348	C	0.472481	0.151226	0.387680
	C349	C	0.510930	0.311429	0.618912
	C350	C	0.391637	0.231819	0.181510
	C351	C	0.555916	0.268273	-0.054722
	H352	H	0.504195	0.178609	0.794989
	H353	H	0.433045	0.340060	0.613485
	H354	H	0.422160	0.265069	-0.223350
	H355	H	0.581655	0.190278	-0.062861
	H356	H	0.501759	0.228448	0.648940
	H357	H	0.431214	0.288180	0.416856
	H358	H	0.471577	0.262492	-0.072651
	H359	H	0.528802	0.189461	0.144309
	H360	H	0.462757	0.180100	0.163226
	H361	H	0.531673	0.265664	0.477782
	H362	H	0.419447	0.221518	0.409086
	H363	H	0.510138	0.289756	0.097053
	H364	H	0.463828	0.129506	0.315169
	H365	H	0.533501	0.318377	0.673165
	H366	H	0.369164	0.222737	0.251879
	H367	H	0.564001	0.290525	-0.108438
	N368	N	0.486417	0.119059	0.634397
	N369	N	0.486120	0.364312	0.755847
	N370	N	0.360844	0.245789	-0.071783
	N371	N	0.608540	0.242173	-0.207418
