data_Molecule from CHK

_cell_length_a		40.874111
_cell_length_b		41.358608
_cell_length_c		6.999969
_cell_angle_alpha	98.761608
_cell_angle_beta	80.567325
_cell_angle_gamma	90.700926
_symmetry_space_group_name_H-M	'P 1'
_symmetry_Int_Tables_number		1

loop_
	_symmetry_equiv_pos_as_xyz
	x,y,z

loop_
	_atom_site_label
	_atom_site_type_symbol
	_atom_site_fract_x
	_atom_site_fract_y
	_atom_site_fract_z
	C0	C	-0.021335	0.732189	0.277805
	C1	C	-0.023130	0.646077	0.587892
	C2	C	-0.018921	0.826890	0.669170
	C3	C	-0.112696	0.736293	0.012054
	C4	C	0.074005	0.731756	-0.133462
	C5	C	-0.017290	0.677531	0.680486
	C6	C	-0.048244	0.815890	0.602628
	C7	C	-0.083865	0.752898	-0.053197
	C8	C	0.062277	0.703259	-0.061745
	C9	C	-0.016616	0.704603	0.583233
	C10	C	-0.049344	0.785650	0.484129
	C11	C	-0.054973	0.750857	0.026924
	C12	C	0.032012	0.703100	0.064007
	C13	C	-0.022235	0.701880	0.389548
	C14	C	-0.021338	0.765094	0.424791
	C15	C	-0.052967	0.732293	0.176187
	C16	C	0.011817	0.731180	0.124887
	C17	C	-0.029208	0.670300	0.299829
	C18	C	0.007689	0.776040	0.495862
	C19	C	-0.082084	0.716093	0.242382
	C20	C	0.024030	0.759624	0.052331
	C21	C	-0.029736	0.643037	0.395871
	C22	C	0.009007	0.806244	0.614050
	C23	C	-0.110832	0.717417	0.160163
	C24	C	0.054312	0.760062	-0.072760
	H25	H	-0.013074	0.680664	0.830634
	H26	H	-0.070299	0.831302	0.644328
	H27	H	-0.083856	0.768386	-0.164520
	H28	H	0.077295	0.681119	-0.104656
	H29	H	-0.011727	0.728197	0.662209
	H30	H	-0.072414	0.778178	0.434906
	H31	H	-0.033751	0.764510	-0.028175
	H32	H	0.024685	0.680509	0.117532
	H33	H	-0.034354	0.667062	0.151095
	H34	H	0.029754	0.760610	0.455344
	H35	H	-0.082713	0.702475	0.363337
	H36	H	0.010011	0.782307	0.099294
	H37	H	-0.035314	0.619097	0.322482
	H38	H	0.031989	0.814396	0.662659
	H39	H	-0.132603	0.703990	0.212443
	H40	H	0.063229	0.782610	-0.122683
	N41	N	-0.023700	0.619239	0.689866
	N42	N	-0.016419	0.858655	0.771865
	N43	N	-0.142422	0.737431	-0.062728
	N44	N	0.106039	0.732711	-0.243890
	C45	C	0.334539	0.747486	0.273296
	C46	C	0.323271	0.766894	0.454049
	C47	C	0.290575	0.765475	0.547015
	C48	C	0.267515	0.744481	0.464552
	C49	C	0.279126	0.724837	0.284108
	C50	C	0.311759	0.726344	0.190559
	C51	C	0.232335	0.743128	0.563291
	C52	C	0.206364	0.735639	0.454977
	C53	C	0.173546	0.734478	0.546302
	C54	C	0.165032	0.740742	0.750905
	C55	C	0.190755	0.748355	0.860033
	C56	C	0.223564	0.749458	0.768552
	H57	H	0.153904	0.728686	0.460053
	H58	H	0.319945	0.710933	0.051494
	H59	H	0.184697	0.753461	1.018376
	H60	H	0.340554	0.783424	0.519764
	H61	H	0.211878	0.731228	0.296515
	H62	H	0.262507	0.707626	0.217895
	H63	H	0.282632	0.781567	0.683738
	H64	H	0.242808	0.754752	0.857983
	C65	C	0.368976	0.749216	0.172069
	H66	H	0.374977	0.734183	0.026817
	C67	C	0.130374	0.739508	0.849349
	H68	H	0.126244	0.744516	1.010466
	C69	C	0.673724	0.746756	0.288193
	C70	C	0.698803	0.769338	0.247305
	C71	C	0.727704	0.769753	0.328566
	C72	C	0.732975	0.747660	0.455106
	C73	C	0.707566	0.725274	0.496794
	C74	C	0.678684	0.724778	0.415261
	C75	C	0.764341	0.747484	0.538376
	C76	C	0.765017	0.738412	0.723514
	C77	C	0.794522	0.737290	0.797498
	C78	C	0.824832	0.745253	0.690210
	C79	C	0.824219	0.755030	0.507564
	C80	C	0.794760	0.756027	0.433411
	H81	H	0.794451	0.729872	0.939568
	H82	H	0.659582	0.707213	0.450108
	H83	H	0.847178	0.761902	0.423035
	H84	H	0.695263	0.786662	0.150438
	H85	H	0.742009	0.732665	0.812258
	H86	H	0.710840	0.707537	0.591381
	H87	H	0.746237	0.787959	0.296251
	H88	H	0.795569	0.762837	0.289276
	C89	C	0.643330	0.745843	0.199247
	H90	H	0.625904	0.726286	0.233011
	C91	C	0.856377	0.743722	0.765512
	H92	H	0.878758	0.747928	0.662572
	C93	C	0.012441	0.438444	1.302240
	C94	C	0.026062	0.435909	1.102959
	C95	C	0.024616	0.461980	1.000458
	C96	C	0.009425	0.491927	1.092172
	C97	C	-0.003752	0.494514	1.292823
	C98	C	-0.002290	0.468410	1.395640
	C99	C	0.007297	0.519534	0.980033
	C100	C	-0.020377	0.540820	1.020529
	C101	C	-0.022447	0.566419	0.914919
	C102	C	0.003144	0.572104	0.764363
	C103	C	0.030762	0.550880	0.722560
	C104	C	0.032742	0.525205	0.827710
	H105	H	-0.044060	0.582503	0.948075
	H106	H	-0.012741	0.471089	1.549983
	H107	H	0.050825	0.554768	0.606663
	H108	H	0.037606	0.412908	1.029025
	H109	H	-0.040833	0.536819	1.133820
	H110	H	-0.014871	0.517504	1.369847
	H111	H	0.034740	0.458817	0.845673
	H112	H	0.054726	0.509667	0.794363
	C113	C	0.013277	0.410126	1.406856
	H114	H	0.001066	0.413297	1.560554
	C115	C	0.001349	0.599712	0.655586
	H116	H	0.023014	0.603209	0.545220
	C117	C	0.000336	0.084166	1.215842
	C118	C	0.011254	0.074157	1.015043
	C119	C	0.007880	0.041918	0.928950
	C120	C	-0.006495	0.018172	1.039726
	C121	C	-0.017579	0.028415	1.240668
	C122	C	-0.014283	0.060625	1.326760
	C123	C	-0.010002	-0.016453	0.948977
	C124	C	-0.005270	-0.042630	1.048956
	C125	C	-0.008615	-0.074960	0.964722
	C126	C	-0.016972	-0.082639	0.776686
	C127	C	-0.021725	-0.056616	0.676175
	C128	C	-0.018305	-0.024303	0.760390
	H129	H	-0.004556	-0.094852	1.043119
	H130	H	-0.023155	0.067897	1.481887
	H131	H	-0.028342	-0.062039	0.531049
	H132	H	0.022688	0.092088	0.927876
	H133	H	0.002032	-0.037474	1.192376
	H134	H	-0.029615	0.010911	1.328688
	H135	H	0.017278	0.034736	0.774419
	H136	H	-0.022737	-0.004648	0.681361
	C137	C	0.003855	0.118158	1.309363
	H138	H	-0.005027	0.123351	1.468209
	C139	C	-0.019943	-0.116825	0.684628
	H140	H	-0.025225	-0.120373	0.533752
	C141	C	0.518484	0.767893	0.729164
	C142	C	0.423014	0.767966	1.136315
	C143	C	0.520767	0.858626	0.460239
	C144	C	0.513897	0.674435	0.328518
	C145	C	0.608960	0.765433	1.002865
	C146	C	0.434873	0.796597	1.066663
	C147	C	0.509673	0.829119	0.366280
	C148	C	0.543296	0.684198	0.397550
	C149	C	0.577866	0.757102	1.099271
	C150	C	0.465330	0.796943	0.943009
	C151	C	0.508762	0.800503	0.450133
	C152	C	0.545123	0.714010	0.519145
	C153	C	0.549447	0.757471	1.012973
	C154	C	0.485529	0.768868	0.882776
	C155	C	0.519765	0.799441	0.628204
	C156	C	0.517854	0.735565	0.578135
	C157	C	0.550110	0.767236	0.829703
	C158	C	0.473468	0.740341	0.954499
	C159	C	0.531345	0.829012	0.719737
	C160	C	0.488580	0.725574	0.506803
	C161	C	0.581227	0.776148	0.735389
	C162	C	0.442984	0.739749	1.077343
	C163	C	0.532071	0.857776	0.637853
	C164	C	0.486482	0.695715	0.386271
	C165	C	0.609842	0.775411	0.819484
	H166	H	0.419617	0.818596	1.108308
	H167	H	0.501722	0.828496	0.225691
	H168	H	0.564686	0.667881	0.356914
	H169	H	0.575547	0.750511	1.244514
	H170	H	0.472969	0.819519	0.889728
	H171	H	0.499111	0.778707	0.374437
	H172	H	0.568152	0.719980	0.572600
	H173	H	0.526357	0.749998	1.091592
	H174	H	0.488209	0.718025	0.910518
	H175	H	0.539827	0.829557	0.859043
	H176	H	0.466779	0.741321	0.550491
	H177	H	0.582997	0.783921	0.593008
	H178	H	0.434278	0.717157	1.127292
	H179	H	0.541348	0.880125	0.711888
	H180	H	0.463293	0.688375	0.337808
	H181	H	0.633409	0.782761	0.743539
	N182	N	0.390917	0.767207	1.245662
	N183	N	0.522400	0.887697	0.378453
	N184	N	0.511116	0.642909	0.222955
	N185	N	0.637919	0.766126	1.086952
	C186	C	0.023308	0.267290	0.708229
	C187	C	0.019053	0.172176	0.323775
	C188	C	0.113226	0.268557	0.990287
	C189	C	-0.072707	0.266243	1.106787
	C190	C	0.026915	0.355552	0.415535
	C191	C	0.048911	0.183230	0.382223
	C192	C	0.082324	0.259383	1.084734
	C193	C	-0.060934	0.295160	1.040432
	C194	C	0.012846	0.326473	0.337832
	C195	C	0.050625	0.213518	0.499334
	C196	C	0.054082	0.258752	0.996125
	C197	C	-0.030325	0.295852	0.918589
	C198	C	0.011543	0.298691	0.429373
	C199	C	0.023022	0.234628	0.559224
	C200	C	0.054894	0.267334	0.809756
	C201	C	-0.009659	0.268074	0.861251
	C202	C	0.024113	0.298383	0.603390
	C203	C	-0.006389	0.223804	0.492158
	C204	C	0.086030	0.276081	0.714778
	C205	C	-0.021112	0.239614	0.936151
	C206	C	0.037032	0.328068	0.684584
	C207	C	-0.008387	0.193484	0.376345
	C208	C	0.114466	0.276471	0.801503
	C209	C	-0.051753	0.238663	1.056804
	C210	C	0.038488	0.355973	0.593687
	H211	H	0.070599	0.167331	0.339737
	H212	H	0.079849	0.253471	1.231630
	H213	H	-0.076416	0.317014	1.081504
	H214	H	0.003095	0.325830	0.202543
	H215	H	0.073883	0.220285	0.547871
	H216	H	0.031000	0.251447	1.075663
	H217	H	-0.022743	0.318487	0.865702
	H218	H	0.000235	0.277060	0.363015
	H219	H	-0.028435	0.239211	0.535736
	H220	H	0.087936	0.282873	0.569849
	H221	H	-0.005824	0.217615	0.895891
	H222	H	0.046054	0.329335	0.822819
	H223	H	-0.031592	0.185707	0.329455
	H224	H	0.138104	0.283367	0.724144
	H225	H	-0.060063	0.216217	1.110145
	H226	H	0.049234	0.378155	0.659221
	N227	N	0.016759	0.140774	0.215621
	N228	N	0.142329	0.268675	1.072600
	N229	N	-0.104299	0.265001	1.221704
	N230	N	0.027087	0.383069	0.320545
	C231	C	0.482021	0.418954	-0.219948
	C232	C	0.490871	0.426507	-0.033077
	C233	C	0.493451	0.458834	0.053827
	C234	C	0.487336	0.485138	-0.042012
	C235	C	0.478226	0.477397	-0.228645
	C236	C	0.475599	0.445112	-0.315526
	C237	C	0.490323	0.519810	0.049803
	C238	C	0.503331	0.543952	-0.061937
	C239	C	0.506265	0.576264	0.024084
	C240	C	0.496219	0.586011	0.225925
	C241	C	0.483186	0.562031	0.338170
	C242	C	0.480312	0.529731	0.252045
	H243	H	0.516680	0.594467	-0.064096
	H244	H	0.468404	0.439821	-0.459248
	H245	H	0.475171	0.569044	0.494360
	H246	H	0.496055	0.406525	0.041919
	H247	H	0.512075	0.537029	-0.217437
	H248	H	0.472544	0.497106	-0.304063
	H249	H	0.501259	0.463893	0.195920
	H250	H	0.469483	0.511873	0.341246
	C251	C	0.479850	0.384866	-0.315763
	H252	H	0.474136	0.381706	-0.465699
	C253	C	0.499656	0.620065	0.319079
	H254	H	0.492075	0.625062	0.479095
	C255	C	0.501831	1.079003	0.826400
	C256	C	0.485463	1.051492	0.746110
	C257	C	0.485395	1.022132	0.820307
	C258	C	0.501409	1.018886	0.979730
	C259	C	0.517807	1.046569	1.059430
	C260	C	0.518139	1.075870	0.984256
	C261	C	0.500732	0.987593	1.061999
	C262	C	0.527714	0.977307	1.140296
	C263	C	0.526923	0.948255	1.218353
	C264	C	0.499060	0.928078	1.222631
	C265	C	0.472119	0.938077	1.143741
	C266	C	0.472966	0.967105	1.065378
	H267	H	0.548052	0.940760	1.277551
	H268	H	0.530754	1.096835	1.050050
	H269	H	0.450343	0.922855	1.144867
	H270	H	0.472890	1.053404	0.623243
	H271	H	0.549892	0.991970	1.136301
	H272	H	0.529726	1.045293	1.185520
	H273	H	0.473274	1.001137	0.751028
	H274	H	0.451474	0.974469	1.009371
	C275	C	0.501494	1.110295	0.749438
	H276	H	0.517342	1.129477	0.810113
	C277	C	0.498036	0.897450	1.307396
	H278	H	0.474959	0.883528	1.307693
	C279	C	0.329152	0.245811	0.672446
	C280	C	0.298818	0.237857	0.779485
	C281	C	0.269311	0.239219	0.705769
	C282	C	0.268679	0.248462	0.521011
	C283	C	0.299148	0.256842	0.415894
	C284	C	0.328603	0.255610	0.489768
	C285	C	0.237348	0.248845	0.437619
	C286	C	0.232209	0.271154	0.312083
	C287	C	0.203341	0.270988	0.230723
	C288	C	0.178198	0.248403	0.270154
	C289	C	0.182952	0.226317	0.396994
	C290	C	0.211803	0.226569	0.478680
	H291	H	0.199901	0.288468	0.134616
	H292	H	0.351605	0.262328	0.404980
	H293	H	0.163733	0.208840	0.431349
	H294	H	0.298727	0.230270	0.921144
	H295	H	0.250828	0.289324	0.280670
	H296	H	0.299997	0.263663	0.271749
	H297	H	0.246278	0.233488	0.794320
	H298	H	0.214942	0.208729	0.572879
	C299	C	0.360764	0.243653	0.746095
	H300	H	0.383116	0.247633	0.642356
	C301	C	0.147691	0.247999	0.182626
	H302	H	0.130137	0.228499	0.215476
	C303	C	0.670203	0.238531	0.730198
	C304	C	0.676663	0.247836	0.543257
	C305	C	0.709023	0.250521	0.447837
	C306	C	0.736438	0.244069	0.534926
	C307	C	0.729802	0.234659	0.722031
	C308	C	0.697476	0.231898	0.817367
	C309	C	0.771143	0.246793	0.433058
	C310	C	0.796498	0.259517	0.535401
	C311	C	0.828891	0.261916	0.439806
	C312	C	0.837475	0.251579	0.237488
	C313	C	0.812251	0.238911	0.134555
	C314	C	0.779874	0.236595	0.230190
	H315	H	0.848082	0.272055	0.520675
	H316	H	0.693020	0.224384	0.961012
	H317	H	0.818380	0.230691	-0.021794
	H318	H	0.655810	0.253198	0.474763
	H319	H	0.790459	0.268385	0.691030
	H320	H	0.750421	0.228802	0.790670
	H321	H	0.713272	0.258597	0.305751
	H322	H	0.761023	0.226018	0.148373
	C323	C	0.636063	0.235883	0.833667
	H324	H	0.633668	0.229442	0.982111
	C325	C	0.871658	0.254102	0.134427
	H326	H	0.875773	0.245878	-0.024797
	C327	C	0.482433	0.233675	0.266551
	C328	C	0.482676	0.143967	0.545051
	C329	C	0.482970	0.328545	0.657202
	C330	C	0.392103	0.235252	-0.011379
	C331	C	0.578830	0.238370	-0.127247
	C332	C	0.489339	0.174768	0.645118
	C333	C	0.453800	0.316871	0.591369
	C334	C	0.420608	0.252623	-0.073021
	C335	C	0.567119	0.208621	-0.071973
	C336	C	0.489050	0.203079	0.559169
	C337	C	0.453246	0.286486	0.473555
	C338	C	0.449298	0.251260	0.009868
	C339	C	0.536562	0.206901	0.048823
	C340	C	0.482395	0.202360	0.368739
	C341	C	0.481372	0.265991	0.419399
	C342	C	0.450998	0.233499	0.163099
	C343	C	0.515635	0.234331	0.115698
	C344	C	0.475446	0.171471	0.270064
	C345	C	0.509850	0.277102	0.496164
	C346	C	0.421902	0.217295	0.229648
	C347	C	0.527186	0.263706	0.052681
	C348	C	0.475706	0.143091	0.354809
	C349	C	0.510640	0.307504	0.613257
	C350	C	0.393443	0.217801	0.143850
	C351	C	0.557800	0.265725	-0.066740
	H352	H	0.494061	0.177193	0.794014
	H353	H	0.431619	0.332135	0.629514
	H354	H	0.420661	0.267814	-0.185826
	H355	H	0.582547	0.186850	-0.120914
	H356	H	0.494036	0.226113	0.644343
	H357	H	0.430520	0.278926	0.420354
	H358	H	0.470482	0.264984	-0.045213
	H359	H	0.529569	0.183652	0.094504
	H360	H	0.469448	0.169715	0.123754
	H361	H	0.532035	0.261815	0.459510
	H362	H	0.421178	0.204254	0.353242
	H363	H	0.512323	0.285821	0.102645
	H364	H	0.469968	0.119692	0.274949
	H365	H	0.533201	0.315700	0.666995
	H366	H	0.371595	0.204594	0.197471
	H367	H	0.566182	0.288907	-0.109903
	N368	N	0.483851	0.114568	0.620553
	N369	N	0.484594	0.359992	0.766004
	N370	N	0.362124	0.237077	-0.082905
	N371	N	0.610305	0.240875	-0.241044
