data_Molecule from CHK

_cell_length_a		40.926626
_cell_length_b		41.857315
_cell_length_c		6.967873
_cell_angle_alpha	84.525390
_cell_angle_beta	87.251965
_cell_angle_gamma	92.648382
_symmetry_space_group_name_H-M	'P 1'
_symmetry_Int_Tables_number		1

loop_
	_symmetry_equiv_pos_as_xyz
	x,y,z

loop_
	_atom_site_label
	_atom_site_type_symbol
	_atom_site_fract_x
	_atom_site_fract_y
	_atom_site_fract_z
	C0	C	-0.005537	0.755695	0.293195
	C1	C	-0.006970	0.661603	0.647076
	C2	C	-0.003834	0.845873	0.581302
	C3	C	-0.096446	0.753630	-0.029128
	C4	C	0.090020	0.763768	-0.040964
	C5	C	0.003757	0.689712	0.724363
	C6	C	-0.031429	0.835447	0.488809
	C7	C	-0.066390	0.764953	-0.123053
	C8	C	0.076291	0.733876	0.038851
	C9	C	0.004078	0.719763	0.616976
	C10	C	-0.032340	0.806534	0.404750
	C11	C	-0.037478	0.765860	-0.023850
	C12	C	0.045647	0.731160	0.137183
	C13	C	-0.006588	0.723250	0.428379
	C14	C	-0.005818	0.786423	0.407168
	C15	C	-0.036904	0.754954	0.172068
	C16	C	0.027109	0.757967	0.162086
	C17	C	-0.018467	0.695005	0.355555
	C18	C	0.021800	0.797106	0.499646
	C19	C	-0.066983	0.743419	0.264625
	C20	C	0.040609	0.787646	0.076105
	C21	C	-0.019124	0.665103	0.461932
	C22	C	0.022949	0.826120	0.583804
	C23	C	-0.095796	0.742438	0.166885
	C24	C	0.071451	0.790656	-0.020778
	H25	H	0.012233	0.687743	0.869739
	H26	H	-0.052170	0.850660	0.481513
	H27	H	-0.065160	0.773280	-0.275012
	H28	H	0.090289	0.712720	0.026937
	H29	H	0.012877	0.740670	0.682324
	H30	H	-0.054131	0.800293	0.331912
	H31	H	-0.014948	0.775174	-0.100745
	H32	H	0.036686	0.707577	0.199543
	H33	H	-0.027106	0.696334	0.210417
	H34	H	0.043232	0.782826	0.499756
	H35	H	-0.067736	0.734969	0.416862
	H36	H	0.026952	0.808909	0.090586
	H37	H	-0.029282	0.644250	0.400220
	H38	H	0.045143	0.834114	0.647556
	H39	H	-0.118438	0.732658	0.241782
	H40	H	0.081885	0.814088	-0.078222
	N41	N	-0.007281	0.631119	0.752834
	N42	N	-0.002756	0.876495	0.646324
	N43	N	-0.126451	0.750983	-0.114812
	N44	N	0.122459	0.766645	-0.116772
	C45	C	0.335619	0.754205	0.344922
	C46	C	0.311923	0.732698	0.283219
	C47	C	0.279019	0.733617	0.341775
	C48	C	0.268100	0.756155	0.464580
	C49	C	0.292036	0.777511	0.526972
	C50	C	0.324958	0.776620	0.468449
	C51	C	0.232750	0.757341	0.526105
	C52	C	0.223093	0.766142	0.709371
	C53	C	0.190222	0.766889	0.768382
	C54	C	0.165274	0.758872	0.647390
	C55	C	0.174667	0.750290	0.463766
	C56	C	0.207614	0.749614	0.404685
	H57	H	0.183423	0.773531	0.911042
	H58	H	0.342787	0.793543	0.517718
	H59	H	0.155846	0.744214	0.367079
	H60	H	0.319741	0.715194	0.187667
	H61	H	0.241608	0.771679	0.808945
	H62	H	0.284584	0.795610	0.619062
	H63	H	0.261555	0.716186	0.294190
	H64	H	0.214049	0.743438	0.260623
	C65	C	0.370188	0.754438	0.273353
	H66	H	0.386875	0.773032	0.321570
	C67	C	0.130543	0.758162	0.716792
	H68	H	0.112222	0.749598	0.620866
	C69	C	0.671889	0.734398	0.310263
	C70	C	0.691975	0.761679	0.243709
	C71	C	0.723289	0.766195	0.308708
	C72	C	0.736137	0.743645	0.443654
	C73	C	0.715812	0.716413	0.510706
	C74	C	0.684466	0.711835	0.445434
	C75	C	0.769860	0.748431	0.511946
	C76	C	0.777337	0.737876	0.701666
	C77	C	0.808756	0.742196	0.765506
	C78	C	0.834285	0.757383	0.643283
	C79	C	0.826978	0.768211	0.454247
	C80	C	0.795536	0.763737	0.390162
	H81	H	0.813892	0.733816	0.912579
	H82	H	0.669449	0.690541	0.498641
	H83	H	0.846227	0.780078	0.356961
	H84	H	0.682627	0.779437	0.139420
	H85	H	0.758098	0.726753	0.801724
	H86	H	0.725082	0.698232	0.612343
	H87	H	0.737802	0.787875	0.256818
	H88	H	0.790908	0.771683	0.241753
	C89	C	0.639162	0.729448	0.234065
	H90	H	0.625171	0.707045	0.286236
	C91	C	0.867484	0.761908	0.714408
	H92	H	0.885850	0.774916	0.612716
	C93	C	-0.008414	0.410182	1.186855
	C94	C	0.015477	0.420817	1.040969
	C95	C	0.017386	0.452472	0.958004
	C96	C	-0.004498	0.475085	1.016510
	C97	C	-0.028583	0.464141	1.161778
	C98	C	-0.030429	0.432532	1.245482
	C99	C	-0.002180	0.509153	0.929057
	C100	C	-0.011620	0.534570	1.034694
	C101	C	-0.009674	0.566278	0.952292
	C102	C	0.002111	0.574157	0.760604
	C103	C	0.011747	0.548969	0.654641
	C104	C	0.009604	0.517287	0.736773
	H105	H	-0.017304	0.585500	1.035539
	H106	H	-0.049124	0.424854	1.357991
	H107	H	0.020756	0.554441	0.505713
	H108	H	0.032862	0.403897	0.995311
	H109	H	-0.020210	0.529499	1.184458
	H110	H	-0.046469	0.480520	1.207670
	H111	H	0.036796	0.459946	0.849634
	H112	H	0.016465	0.498429	0.648775
	C113	C	-0.009395	0.377189	1.282823
	H114	H	-0.027289	0.371795	1.405845
	C115	C	0.003321	0.607411	0.668669
	H116	H	0.013908	0.610824	0.519542
	C117	C	0.004418	0.075050	1.166238
	C118	C	-0.006755	0.048374	1.293896
	C119	C	-0.006823	0.017390	1.237614
	C120	C	0.004328	0.011495	1.051010
	C121	C	0.015158	0.038348	0.922799
	C122	C	0.015261	0.069405	0.979013
	C123	C	0.004354	-0.021879	0.992679
	C124	C	-0.003278	-0.028414	0.805488
	C125	C	-0.003600	-0.059514	0.750930
	C126	C	0.003815	-0.085644	0.880459
	C127	C	0.011360	-0.079346	1.067880
	C128	C	0.011687	-0.048167	1.122250
	H129	H	-0.009976	-0.064064	0.606463
	H130	H	0.023819	0.089647	0.877457
	H131	H	0.017045	-0.099125	1.171021
	H132	H	-0.015577	0.052366	1.438488
	H133	H	-0.009831	-0.008854	0.703766
	H134	H	0.024285	0.034697	0.778323
	H135	H	-0.016373	-0.002623	1.337673
	H136	H	0.018409	-0.043901	1.266509
	C137	C	0.005494	0.107647	1.231001
	H138	H	0.015060	0.127519	1.126025
	C139	C	0.003208	-0.118501	0.819452
	H140	H	0.008008	-0.138099	0.929013
	C141	C	0.505794	0.742400	0.720102
	C142	C	0.411955	0.737406	1.071352
	C143	C	0.505874	0.835300	0.356049
	C144	C	0.499175	0.651788	0.438837
	C145	C	0.598510	0.746155	1.023221
	C146	C	0.424761	0.766407	0.972999
	C147	C	0.494042	0.806952	0.285763
	C148	C	0.528738	0.662922	0.508289
	C149	C	0.568916	0.735756	1.125336
	C150	C	0.454927	0.768217	0.869708
	C151	C	0.494242	0.777230	0.396346
	C152	C	0.531126	0.691936	0.591060
	C153	C	0.539448	0.734009	1.032168
	C154	C	0.473952	0.741376	0.857607
	C155	C	0.506711	0.774356	0.580675
	C156	C	0.504321	0.711382	0.609171
	C157	C	0.537967	0.743097	0.834204
	C158	C	0.461186	0.712563	0.958919
	C159	C	0.519504	0.802826	0.646650
	C160	C	0.474921	0.700139	0.537275
	C161	C	0.567716	0.753577	0.733638
	C162	C	0.430838	0.710482	1.061387
	C163	C	0.519626	0.832391	0.536951
	C164	C	0.472230	0.670941	0.456192
	C165	C	0.597123	0.755293	0.825162
	H166	H	0.410427	0.787544	0.972449
	H167	H	0.484170	0.808485	0.143871
	H168	H	0.549761	0.648187	0.500115
	H169	H	0.568867	0.729257	1.279429
	H170	H	0.463058	0.791057	0.792795
	H171	H	0.484216	0.756085	0.338049
	H172	H	0.554286	0.698803	0.647435
	H173	H	0.517235	0.725683	1.115787
	H174	H	0.474965	0.691163	0.952636
	H175	H	0.529235	0.801947	0.789010
	H176	H	0.453440	0.714152	0.550426
	H177	H	0.567718	0.760848	0.580082
	H178	H	0.420970	0.687609	1.131425
	H179	H	0.530534	0.853465	0.592838
	H180	H	0.448859	0.662299	0.409139
	H181	H	0.619555	0.763995	0.743756
	N182	N	0.380004	0.734763	1.156115
	N183	N	0.505501	0.865554	0.248053
	N184	N	0.496203	0.621143	0.374279
	N185	N	0.628496	0.750040	1.108427
	C186	C	0.003375	0.235183	0.730433
	C187	C	-0.001833	0.142677	0.470562
	C188	C	0.092417	0.241164	1.066835
	C189	C	-0.092794	0.231511	1.055962
	C190	C	0.009411	0.326093	0.344109
	C191	C	0.027403	0.154357	0.541411
	C192	C	0.062772	0.227587	1.153921
	C193	C	-0.078991	0.260399	0.961205
	C194	C	-0.002980	0.297580	0.278438
	C195	C	0.029362	0.183943	0.617935
	C196	C	0.034539	0.225211	1.049967
	C197	C	-0.048273	0.261744	0.864526
	C198	C	-0.004755	0.268573	0.397112
	C199	C	0.002659	0.203753	0.623547
	C200	C	0.034550	0.235994	0.853572
	C201	C	-0.029375	0.234685	0.859600
	C202	C	0.005379	0.266708	0.586870
	C203	C	-0.026054	0.192452	0.544145
	C204	C	0.064772	0.248175	0.765304
	C205	C	-0.042781	0.206222	0.962276
	C206	C	0.017142	0.295652	0.652017
	C207	C	-0.028294	0.162757	0.468532
	C208	C	0.092927	0.250923	0.868403
	C209	C	-0.073628	0.204615	1.058809
	C210	C	0.019136	0.324570	0.534698
	H211	H	0.048408	0.139501	0.541065
	H212	H	0.061957	0.219303	1.306167
	H213	H	-0.093110	0.281706	0.956668
	H214	H	-0.011076	0.298262	0.132454
	H215	H	0.052158	0.191257	0.677174
	H216	H	0.012217	0.214758	1.123939
	H217	H	-0.039525	0.284407	0.787855
	H218	H	-0.014468	0.247164	0.340525
	H219	H	-0.047369	0.206880	0.546728
	H220	H	0.066164	0.255954	0.611997
	H221	H	-0.029093	0.184670	0.961842
	H222	H	0.024681	0.295584	0.799133
	H223	H	-0.051051	0.154337	0.412572
	H224	H	0.115278	0.261569	0.794685
	H225	H	-0.083689	0.182103	1.132836
	H226	H	0.028577	0.346297	0.590294
	N227	N	-0.004014	0.112236	0.403166
	N228	N	0.120465	0.243654	1.173995
	N229	N	-0.124475	0.229896	1.143733
	N230	N	0.009971	0.355961	0.231842
	C231	C	0.500612	0.422671	-0.145787
	C232	C	0.493287	0.448885	-0.274944
	C233	C	0.493818	0.479965	-0.220087
	C234	C	0.501713	0.486422	-0.033187
	C235	C	0.508954	0.460053	0.096038
	C236	C	0.508401	0.428884	0.041380
	C237	C	0.502228	0.519837	0.024696
	C238	C	0.491481	0.525989	0.211545
	C239	C	0.492146	0.557033	0.267144
	C240	C	0.503610	0.583494	0.138621
	C241	C	0.513850	0.577618	-0.049223
	C242	C	0.513160	0.546509	-0.104689
	H243	H	0.483623	0.561243	0.411908
	H244	H	0.514107	0.409047	0.144050
	H245	H	0.522451	0.597712	-0.151777
	H246	H	0.486813	0.444416	-0.419379
	H247	H	0.481791	0.506134	0.312345
	H248	H	0.515846	0.464241	0.240104
	H249	H	0.487291	0.499580	-0.321485
	H250	H	0.521915	0.542665	-0.249550
	C251	C	0.500361	0.389930	-0.208520
	H252	H	0.505264	0.370222	-0.099849
	C253	C	0.505228	0.616176	0.201921
	H254	H	0.514841	0.635826	0.095514
	C255	C	0.503384	1.086174	0.809465
	C256	C	0.479987	1.075416	0.957894
	C257	C	0.478489	1.043769	1.040884
	C258	C	0.500366	1.021313	0.980205
	C259	C	0.524015	1.032404	0.832745
	C260	C	0.525448	1.064005	0.749018
	C261	C	0.498645	0.987310	1.068652
	C262	C	0.508011	0.961888	0.962842
	C263	C	0.506725	0.930259	1.046404
	C264	C	0.495820	0.922489	1.239725
	C265	C	0.486105	0.947659	1.345608
	C266	C	0.487567	0.979258	1.262256
	H267	H	0.514299	0.911030	0.963035
	H268	H	0.543863	1.071821	0.635132
	H269	H	0.477643	0.942250	1.495522
	H270	H	0.462665	1.092235	1.005582
	H271	H	0.516049	0.966903	0.812148
	H272	H	0.541935	1.016173	0.785398
	H273	H	0.459442	1.036190	1.151314
	H274	H	0.480752	0.998130	1.350262
	C275	C	0.504230	1.119294	0.715547
	H276	H	0.522052	1.124942	0.592378
	C277	C	0.495194	0.889336	1.332727
	H278	H	0.485369	0.886045	1.483485
	C279	C	0.324181	0.264879	0.731747
	C280	C	0.322016	0.241685	0.599663
	C281	C	0.293918	0.237271	0.498763
	C282	C	0.266579	0.255891	0.524298
	C283	C	0.269028	0.279279	0.656057
	C284	C	0.297099	0.283652	0.757605
	C285	C	0.236345	0.250907	0.416929
	C286	C	0.205211	0.256740	0.496876
	C287	C	0.177010	0.252002	0.397361
	C288	C	0.178487	0.241082	0.213166
	C289	C	0.209411	0.235070	0.132628
	C290	C	0.237627	0.239959	0.231957
	H291	H	0.153251	0.256734	0.461245
	H292	H	0.298289	0.301848	0.858176
	H293	H	0.211227	0.226649	-0.009679
	H294	H	0.342713	0.226877	0.578677
	H295	H	0.202948	0.264663	0.640160
	H296	H	0.248884	0.294732	0.676479
	H297	H	0.292926	0.218500	0.402069
	H298	H	0.261150	0.235852	0.162881
	C299	C	0.353831	0.268973	0.840956
	H300	H	0.353317	0.286798	0.946932
	C301	C	0.148572	0.236627	0.106760
	H302	H	0.151892	0.227298	-0.034641
	C303	C	0.664154	0.261091	0.659398
	C304	C	0.689741	0.267607	0.779363
	C305	C	0.722324	0.265674	0.717472
	C306	C	0.731020	0.257204	0.532028
	C307	C	0.705261	0.251177	0.411286
	C308	C	0.672596	0.253038	0.473256
	C309	C	0.766035	0.254759	0.467086
	C310	C	0.775463	0.232392	0.339283
	C311	C	0.808048	0.230302	0.277300
	C312	C	0.832872	0.250444	0.340169
	C313	C	0.823736	0.272512	0.469756
	C314	C	0.791125	0.274584	0.531630
	H315	H	0.814720	0.212959	0.177954
	H316	H	0.653267	0.248248	0.377150
	H317	H	0.842501	0.288239	0.520908
	H318	H	0.683653	0.273982	0.923548
	H319	H	0.757079	0.216004	0.290439
	H320	H	0.710994	0.245381	0.265585
	H321	H	0.741317	0.269987	0.816381
	H322	H	0.784859	0.292430	0.628218
	C323	C	0.629696	0.261785	0.731504
	H324	H	0.610704	0.254675	0.635537
	C325	C	0.867139	0.249370	0.265690
	H326	H	0.884880	0.266864	0.315534
	C327	C	0.492440	0.262656	0.283830
	C328	C	0.485791	0.170659	0.661004
	C329	C	0.494245	0.354858	0.549271
	C330	C	0.406240	0.255646	-0.073490
	C331	C	0.590345	0.268037	-0.021238
	C332	C	0.498488	0.198804	0.729598
	C333	C	0.466470	0.343677	0.461218
	C334	C	0.436393	0.268872	-0.154890
	C335	C	0.575690	0.238555	0.058922
	C336	C	0.500423	0.228125	0.613973
	C337	C	0.465530	0.314203	0.383356
	C338	C	0.463677	0.271739	-0.043571
	C339	C	0.544403	0.236669	0.148885
	C340	C	0.490121	0.230759	0.424552
	C341	C	0.491916	0.293957	0.392074
	C342	C	0.462126	0.261680	0.154073
	C343	C	0.525857	0.263837	0.160556
	C344	C	0.478090	0.202145	0.356458
	C345	C	0.519318	0.304964	0.485448
	C346	C	0.431273	0.250139	0.236545
	C347	C	0.539987	0.292911	0.069239
	C348	C	0.475930	0.172905	0.470653
	C349	C	0.520474	0.334478	0.563867
	C350	C	0.403977	0.247167	0.126381
	C351	C	0.571408	0.295074	-0.020191
	H352	H	0.506722	0.197555	0.875438
	H353	H	0.445734	0.358854	0.450448
	H354	H	0.438332	0.276472	-0.308014
	H355	H	0.589596	0.217163	0.055969
	H356	H	0.510412	0.249142	0.673148
	H357	H	0.443765	0.307406	0.311806
	H358	H	0.486492	0.282013	-0.112151
	H359	H	0.534831	0.213484	0.214579
	H360	H	0.470493	0.202631	0.209312
	H361	H	0.540574	0.290452	0.491381
	H362	H	0.428733	0.243069	0.390585
	H363	H	0.526269	0.314385	0.072980
	H364	H	0.466278	0.151472	0.412699
	H365	H	0.542361	0.342424	0.630950
	H366	H	0.380772	0.237551	0.194543
	H367	H	0.582044	0.318009	-0.084914
	N368	N	0.485137	0.140496	0.770081
	N369	N	0.494701	0.385216	0.617509
	N370	N	0.378905	0.252479	-0.185676
	N371	N	0.622592	0.269714	-0.099423
