data_Molecule from CHK

_cell_length_a		32.310053
_cell_length_b		32.289515
_cell_length_c		13.495779
_cell_angle_alpha	89.396617
_cell_angle_beta	90.796496
_cell_angle_gamma	78.684704
_symmetry_space_group_name_H-M	'P 1'
_symmetry_Int_Tables_number		1

loop_
	_symmetry_equiv_pos_as_xyz
	x,y,z

loop_
	_atom_site_label
	_atom_site_type_symbol
	_atom_site_fract_x
	_atom_site_fract_y
	_atom_site_fract_z
	C0	C	0.001149	0.751421	0.124600
	C1	C	0.010605	0.632095	0.298909
	C2	C	-0.001206	0.862933	0.316866
	C3	C	-0.118098	0.760728	-0.050495
	C4	C	0.111887	0.749447	-0.068725
	C5	C	-0.026372	0.663385	0.295014
	C6	C	0.002827	0.865105	0.213496
	C7	C	-0.086940	0.723647	-0.046094
	C8	C	0.114493	0.753030	0.034751
	C9	C	-0.028380	0.700672	0.240217
	C10	C	0.003396	0.829645	0.154770
	C11	C	-0.049700	0.721644	0.009089
	C12	C	0.079287	0.753405	0.093863
	C13	C	0.005913	0.709059	0.186177
	C14	C	0.000255	0.790134	0.194901
	C15	C	-0.041321	0.755996	0.063328
	C16	C	0.039633	0.750498	0.053992
	C17	C	0.042190	0.677134	0.187476
	C18	C	-0.002129	0.787779	0.298296
	C19	C	-0.072983	0.792494	0.060913
	C20	C	0.036857	0.748557	-0.049477
	C21	C	0.044515	0.639832	0.242419
	C22	C	-0.002772	0.823090	0.357514
	C23	C	-0.110231	0.794809	0.005596
	C24	C	0.071903	0.748158	-0.109085
	H25	H	-0.054143	0.659442	0.334970
	H26	H	0.005759	0.894353	0.177071
	H27	H	-0.090924	0.695829	-0.086131
	H28	H	0.143856	0.756028	0.070755
	H29	H	-0.057445	0.724138	0.238542
	H30	H	0.006457	0.832382	0.075165
	H31	H	-0.026298	0.692527	0.011057
	H32	H	0.082304	0.756221	0.173522
	H33	H	0.069166	0.680929	0.144330
	H34	H	-0.003034	0.757898	0.334214
	H35	H	-0.069064	0.819621	0.103667
	H36	H	0.006838	0.747867	-0.085131
	H37	H	0.073110	0.615753	0.241816
	H38	H	-0.004619	0.820147	0.437400
	H39	H	-0.134158	0.823535	0.005551
	H40	H	0.068639	0.746709	-0.189014
	N41	N	0.015266	0.593381	0.349950
	N42	N	-0.001176	0.896509	0.381798
	N43	N	-0.156794	0.765378	-0.101757
	N44	N	0.145217	0.749978	-0.133800
	C45	C	0.281405	0.750820	0.679972
	C46	C	0.217324	0.747284	0.819500
	C47	C	0.291207	0.744023	0.781331
	C48	C	0.207503	0.754248	0.718189
	C49	C	0.259827	0.742289	0.849768
	C50	C	0.238882	0.755981	0.649751
	H51	H	0.230705	0.761387	0.571920
	H52	H	0.267993	0.736996	0.927633
	H53	H	0.174748	0.758261	0.694345
	H54	H	0.323948	0.740122	0.805207
	C55	C	0.314768	0.752841	0.607162
	H56	H	0.303807	0.758536	0.530069
	C57	C	0.183912	0.745685	0.892448
	H58	H	0.194834	0.740219	0.969623
	C59	C	0.710152	0.758065	0.696435
	C60	C	0.788919	0.743576	0.799250
	C61	C	0.736287	0.717778	0.699554
	C62	C	0.762845	0.783893	0.795866
	C63	C	0.774897	0.710648	0.749891
	C64	C	0.724243	0.791029	0.745479
	H65	H	0.704567	0.822343	0.743567
	H66	H	0.794621	0.679359	0.751560
	H67	H	0.773539	0.809472	0.833538
	H68	H	0.725646	0.692220	0.661669
	C69	C	0.669199	0.765739	0.642242
	H70	H	0.651478	0.798360	0.643355
	C71	C	0.830126	0.735980	0.852350
	H72	H	0.848185	0.703538	0.849359
	C73	C	0.008126	0.460769	0.553008
	C74	C	-0.006323	0.539466	0.450161
	C75	C	-0.031878	0.487413	0.551720
	C76	C	0.033710	0.512876	0.451674
	C77	C	-0.038987	0.525984	0.501369
	C78	C	0.040825	0.474309	0.502070
	H79	H	0.071922	0.454234	0.502530
	H80	H	-0.070055	0.546110	0.501175
	H81	H	0.059089	0.523144	0.412558
	H82	H	-0.057231	0.477204	0.591069
	C83	C	0.015793	0.419863	0.607263
	H84	H	0.048191	0.401714	0.604559
	C85	C	-0.013892	0.580679	0.397239
	H86	H	-0.046101	0.599133	0.401819
	C87	C	-0.001824	1.032929	0.569587
	C88	C	-0.002328	0.968415	0.428844
	C89	C	-0.003697	1.042058	0.467419
	C90	C	-0.000209	0.959248	0.531001
	C91	C	-0.003952	1.010467	0.398389
	C92	C	0.000026	0.990839	0.600026
	H93	H	0.001629	0.983169	0.678513
	H94	H	-0.005467	1.018119	0.319897
	H95	H	0.001188	0.926842	0.555042
	H96	H	-0.005008	1.074452	0.443390
	C97	C	-0.001586	1.066515	0.643169
	H98	H	0.000004	1.055980	0.720834
	C99	C	-0.002564	0.934791	0.355353
	H100	H	-0.004539	0.945293	0.277635
	C101	C	0.497158	0.749158	0.375070
	C102	C	0.386714	0.749657	0.568444
	C103	C	0.487915	0.869147	0.203897
	C104	C	0.498908	0.637966	0.182240
	C105	C	0.617810	0.741118	0.543691
	C106	C	0.384010	0.746723	0.464834
	C107	C	0.524366	0.837205	0.204412
	C108	C	0.495834	0.635514	0.285814
	C109	C	0.585443	0.777210	0.544646
	C110	C	0.419113	0.746911	0.405742
	C111	C	0.526417	0.799836	0.258869
	C112	C	0.495551	0.670874	0.344686
	C113	C	0.547821	0.778864	0.491200
	C114	C	0.458734	0.749875	0.445720
	C115	C	0.492348	0.791658	0.314070
	C116	C	0.498131	0.710529	0.304527
	C117	C	0.539715	0.744664	0.435981
	C118	C	0.461687	0.750868	0.549294
	C119	C	0.455891	0.823376	0.312229
	C120	C	0.499261	0.713226	0.200973
	C121	C	0.571977	0.708675	0.435746
	C122	C	0.426728	0.750758	0.608895
	C123	C	0.453571	0.860823	0.257854
	C124	C	0.499673	0.677997	0.141605
	C125	C	0.609696	0.706780	0.488929
	H126	H	0.354698	0.743640	0.428709
	H127	H	0.551565	0.840814	0.161757
	H128	H	0.493259	0.606165	0.322262
	H129	H	0.589044	0.804688	0.586515
	H130	H	0.416078	0.744330	0.326025
	H131	H	0.555254	0.776074	0.259037
	H132	H	0.493002	0.667989	0.424400
	H133	H	0.523785	0.807490	0.491845
	H134	H	0.491761	0.751289	0.584979
	H135	H	0.428843	0.819385	0.354878
	H136	H	0.499446	0.743285	0.165127
	H137	H	0.568175	0.681646	0.392490
	H138	H	0.430098	0.751588	0.688896
	H139	H	0.424808	0.884689	0.257682
	H140	H	0.500661	0.681165	0.061614
	H141	H	0.633960	0.678339	0.487539
	N142	N	0.353453	0.748644	0.633432
	N143	N	0.482935	0.907051	0.149309
	N144	N	0.498617	0.604443	0.117278
	N145	N	0.656164	0.736285	0.596449
	C146	C	-0.000912	0.248514	0.875965
	C147	C	-0.003112	0.138373	0.682053
	C148	C	0.119460	0.238653	1.046518
	C149	C	-0.111538	0.248198	1.068410
	C150	C	-0.008609	0.369061	0.707692
	C151	C	-0.004161	0.135402	0.785908
	C152	C	0.087507	0.275086	1.047230
	C153	C	-0.114487	0.247313	0.964501
	C154	C	0.027290	0.336482	0.706455
	C155	C	-0.003396	0.170484	0.845038
	C156	C	0.050033	0.277356	0.992854
	C157	C	-0.079248	0.247445	0.905825
	C158	C	0.028868	0.298943	0.759997
	C159	C	-0.000561	0.210101	0.805061
	C160	C	0.041625	0.243413	0.937126
	C161	C	-0.039484	0.249493	0.946350
	C162	C	-0.005257	0.291091	0.815454
	C163	C	0.000285	0.212950	0.701497
	C164	C	0.073499	0.207085	0.937125
	C165	C	-0.036701	0.250347	1.049949
	C166	C	-0.040998	0.323628	0.816285
	C167	C	-0.000570	0.178049	0.641830
	C168	C	0.111079	0.204567	0.991280
	C169	C	-0.071768	0.250165	1.109148
	C170	C	-0.042803	0.361282	0.763086
	H171	H	-0.006515	0.106008	0.822426
	H172	H	0.091228	0.302096	1.090771
	H173	H	-0.144107	0.246065	0.927517
	H174	H	0.054646	0.339807	0.664119
	H175	H	-0.005166	0.167374	0.924883
	H176	H	0.026213	0.306140	0.993845
	H177	H	-0.082371	0.245891	0.825903
	H178	H	0.057286	0.274662	0.758767
	H179	H	0.001069	0.242922	0.665867
	H180	H	0.069475	0.180256	0.893401
	H181	H	-0.006672	0.250643	1.085983
	H182	H	-0.067897	0.320092	0.860015
	H183	H	0.000401	0.181292	0.561851
	H184	H	0.135010	0.175863	0.990227
	H185	H	-0.068571	0.251140	1.189168
	H186	H	-0.071071	0.385745	0.764873
	N187	N	-0.002825	0.104797	0.616946
	N188	N	0.157432	0.233455	1.101096
	N189	N	-0.145246	0.249184	1.133130
	N190	N	-0.013413	0.407322	0.654728
	C191	C	0.499946	0.467715	0.930149
	C192	C	0.500293	0.532402	1.070483
	C193	C	0.502895	0.458523	1.032288
	C194	C	0.497440	0.541580	0.968335
	C195	C	0.503081	0.490198	1.101116
	C196	C	0.497282	0.509900	0.899503
	H197	H	0.495086	0.517577	0.821016
	H198	H	0.505424	0.482499	1.179586
	H199	H	0.495382	0.574068	0.944157
	H200	H	0.505091	0.426015	1.056459
	C201	C	0.500185	0.433959	0.856792
	H202	H	0.498057	0.444448	0.779064
	C203	C	0.500841	0.566035	1.143772
	H204	H	0.503831	0.555422	1.221413
	C205	C	0.492457	1.038174	-0.057018
	C206	C	0.506138	0.961702	0.054707
	C207	C	0.533479	1.015211	-0.037906
	C208	C	0.465125	0.984755	0.035952
	C209	C	0.540217	0.977734	0.016847
	C210	C	0.458387	1.022240	-0.018787
	H211	H	0.426533	1.039579	-0.032630
	H212	H	0.572078	0.960461	0.030933
	H213	H	0.438695	0.972600	0.065135
	H214	H	0.559917	1.027419	-0.066870
	C215	C	0.485265	1.078164	-0.114859
	H216	H	0.452122	1.093744	-0.125298
	C217	C	0.513382	0.921882	0.113191
	H218	H	0.546552	0.906481	0.124146
	C219	C	0.288997	0.242403	0.307291
	C220	C	0.212409	0.256421	0.195607
	C221	C	0.266385	0.283529	0.287660
	C222	C	0.235118	0.215302	0.214858
	C223	C	0.228851	0.290431	0.232940
	C224	C	0.272656	0.208400	0.269574
	H225	H	0.289719	0.176465	0.283812
	H226	H	0.211852	0.322371	0.218467
	H227	H	0.222645	0.188919	0.186109
	H228	H	0.278912	0.309917	0.316200
	C229	C	0.329027	0.235024	0.365179
	H230	H	0.344319	0.201805	0.376006
	C231	C	0.172515	0.263833	0.137205
	H232	H	0.157413	0.297072	0.125704
	C233	C	0.718432	0.250786	0.320674
	C234	C	0.783428	0.248002	0.180388
	C235	C	0.710425	0.246630	0.219043
	C236	C	0.791392	0.252339	0.281976
	C237	C	0.742254	0.245263	0.150238
	C238	C	0.759564	0.253704	0.350780
	H239	H	0.766308	0.257044	0.428831
	H240	H	0.735482	0.242042	0.072159
	H241	H	0.823067	0.254587	0.305749
	H242	H	0.678722	0.244493	0.195245
	C243	C	0.684531	0.252448	0.393928
	H244	H	0.694090	0.255927	0.471141
	C245	C	0.817249	0.246698	0.107058
	H246	H	0.807723	0.243150	0.029850
	C247	C	0.502623	0.251157	0.625190
	C248	C	0.510977	0.130916	0.794918
	C249	C	0.503212	0.361813	0.818462
	C250	C	0.382186	0.260413	0.455157
	C251	C	0.613266	0.251180	0.432571
	C252	C	0.474608	0.162961	0.794237
	C253	C	0.505232	0.364509	0.714712
	C254	C	0.414056	0.223899	0.455348
	C255	C	0.615998	0.253170	0.536359
	C256	C	0.472829	0.200429	0.740327
	C257	C	0.505091	0.329249	0.655763
	C258	C	0.451592	0.221843	0.509362
	C259	C	0.580747	0.253170	0.595074
	C260	C	0.507167	0.208692	0.686251
	C261	C	0.502075	0.289694	0.695822
	C262	C	0.460112	0.256040	0.563991
	C263	C	0.541198	0.250140	0.554786
	C264	C	0.543450	0.176761	0.687791
	C265	C	0.500031	0.287182	0.799259
	C266	C	0.428351	0.292467	0.562941
	C267	C	0.538617	0.248248	0.451300
	C268	C	0.545494	0.139211	0.741577
	C269	C	0.500322	0.322246	0.858752
	C270	C	0.390731	0.294787	0.509068
	C271	C	0.573689	0.248330	0.392047
	H272	H	0.447192	0.159274	0.835984
	H273	H	0.507791	0.393852	0.678219
	H274	H	0.410171	0.196594	0.413098
	H275	H	0.645462	0.255127	0.573216
	H276	H	0.444032	0.224248	0.739905
	H277	H	0.507341	0.332207	0.575992
	H278	H	0.475259	0.192928	0.509447
	H279	H	0.583762	0.255362	0.674891
	H280	H	0.570632	0.180705	0.645584
	H281	H	0.498815	0.257333	0.834981
	H282	H	0.432484	0.319540	0.605636
	H283	H	0.508746	0.247172	0.415361
	H284	H	0.574169	0.115228	0.741704
	H285	H	0.498527	0.319239	0.938637
	H286	H	0.366885	0.323568	0.509344
	H287	H	0.570650	0.246526	0.312131
	N288	N	0.515753	0.092909	0.848994
	N289	N	0.502302	0.395574	0.883319
	N290	N	0.344120	0.265437	0.401036
	N291	N	0.647028	0.249944	0.367891
