data_Molecule from CHK

_cell_length_a		29.570141
_cell_length_b		29.584812
_cell_length_c		6.951573
_cell_angle_alpha	88.830664
_cell_angle_beta	91.172964
_cell_angle_gamma	124.232171
_symmetry_space_group_name_H-M	'P 1'
_symmetry_Int_Tables_number		1

loop_
	_symmetry_equiv_pos_as_xyz
	x,y,z

loop_
	_atom_site_label
	_atom_site_type_symbol
	_atom_site_fract_x
	_atom_site_fract_y
	_atom_site_fract_z
	C0	C	0.019276	0.769974	0.755589
	C1	C	-0.040666	0.629447	1.162032
	C2	C	0.062935	0.906222	1.140159
	C3	C	-0.112789	0.740099	0.346922
	C4	C	0.143117	0.781378	0.374629
	C5	C	-0.002801	0.683598	1.215897
	C6	C	0.017810	0.884262	1.014580
	C7	C	-0.058109	0.767239	0.292704
	C8	C	0.112070	0.736194	0.497349
	C9	C	0.016189	0.727018	1.086897
	C10	C	0.006190	0.843961	0.883063
	C11	C	-0.017110	0.777262	0.422597
	C12	C	0.075725	0.734221	0.627785
	C13	C	-0.003329	0.719612	0.898024
	C14	C	0.038802	0.823522	0.870173
	C15	C	-0.028220	0.758281	0.612408
	C16	C	0.068403	0.776941	0.641923
	C17	C	-0.042808	0.665078	0.845345
	C18	C	0.088458	0.852172	0.973435
	C19	C	-0.083501	0.730091	0.666200
	C20	C	0.105855	0.825150	0.540723
	C21	C	-0.061525	0.621042	0.974268
	C22	C	0.100414	0.892783	1.104802
	C23	C	-0.124870	0.720692	0.536712
	C24	C	0.142636	0.827474	0.410970
	H25	H	0.011193	0.691531	1.363531
	H26	H	-0.009419	0.897640	1.022769
	H27	H	-0.047780	0.779732	0.144323
	H28	H	0.114942	0.701469	0.486714
	H29	H	0.047031	0.767354	1.137209
	H30	H	-0.030123	0.827137	0.793905
	H31	H	0.024347	0.800271	0.372125
	H32	H	0.051282	0.697564	0.714290
	H33	H	-0.058582	0.656867	0.698935
	H34	H	0.117114	0.840735	0.955983
	H35	H	-0.094288	0.715579	0.813468
	H36	H	0.104457	0.860670	0.558496
	H37	H	-0.092442	0.579776	0.929770
	H38	H	0.138265	0.913420	1.187061
	H39	H	-0.167018	0.698130	0.582262
	H40	H	0.170286	0.864624	0.330518
	N41	N	-0.055873	0.588009	1.302732
	N42	N	0.070988	0.940273	1.295607
	N43	N	-0.152080	0.731826	0.206423
	N44	N	0.173874	0.781620	0.221385
	C45	C	0.295758	0.721348	0.062447
	C46	C	0.261758	0.673954	0.172180
	C47	C	0.238940	0.675793	0.343182
	C48	C	0.247890	0.724772	0.411714
	C49	C	0.280348	0.771581	0.295645
	C50	C	0.304441	0.770167	0.128338
	C51	C	0.224860	0.728000	0.597283
	C52	C	0.245825	0.778308	0.688905
	C53	C	0.223382	0.781982	0.857199
	C54	C	0.178738	0.735421	0.944168
	C55	C	0.158283	0.684931	0.856947
	C56	C	0.181024	0.681324	0.689297
	H57	H	0.239649	0.821326	0.922495
	H58	H	0.329689	0.807164	0.043760
	H59	H	0.124022	0.648236	0.922524
	H60	H	0.255069	0.635960	0.124412
	H61	H	0.280566	0.815645	0.629310
	H62	H	0.285782	0.809684	0.333045
	H63	H	0.215414	0.638552	0.427667
	H64	H	0.163582	0.641460	0.627517
	C65	C	0.323848	0.722335	-0.111906
	H66	H	0.358658	0.763460	-0.153280
	C67	C	0.152827	0.738806	1.117302
	H68	H	0.112318	0.701731	1.148962
	C69	C	0.696717	0.768998	0.043618
	C70	C	0.726422	0.816707	0.152612
	C71	C	0.751604	0.817846	0.326039
	C72	C	0.748837	0.771577	0.399230
	C73	C	0.720353	0.724435	0.285220
	C74	C	0.694558	0.723004	0.113668
	C75	C	0.774899	0.772027	0.587071
	C76	C	0.757690	0.723525	0.690765
	C77	C	0.783309	0.723736	0.861685
	C78	C	0.826971	0.772662	0.940064
	C79	C	0.843398	0.821289	0.840671
	C80	C	0.818170	0.820969	0.669077
	H81	H	0.770167	0.685795	0.936607
	H82	H	0.672467	0.685796	0.030661
	H83	H	0.876998	0.859681	0.898675
	H84	H	0.728349	0.852581	0.100863
	H85	H	0.723516	0.684735	0.637739
	H86	H	0.719383	0.688544	0.328625
	H87	H	0.772178	0.855067	0.408829
	H88	H	0.833294	0.859487	0.595797
	C89	C	0.664976	0.764494	-0.129872
	H90	H	0.640087	0.723345	-0.192291
	C91	C	0.857574	0.774218	1.112781
	H92	H	0.892159	0.815310	1.154456
	C93	C	-0.019198	0.426096	0.440800
	C94	C	0.029269	0.469218	0.357936
	C95	C	0.028395	0.494366	0.187464
	C96	C	-0.020816	0.477201	0.088724
	C97	C	-0.069281	0.434617	0.175530
	C98	C	-0.068504	0.409826	0.346679
	C99	C	-0.021476	0.502626	-0.099112
	C100	C	-0.067848	0.500450	-0.167591
	C101	C	-0.067600	0.525165	-0.341009
	C102	C	-0.020705	0.553811	-0.454564
	C103	C	0.025350	0.555362	-0.389130
	C104	C	0.024787	0.530024	-0.217638
	H105	H	-0.103507	0.523717	-0.389202
	H106	H	-0.106553	0.376702	0.408431
	H107	H	0.061908	0.576622	-0.475736
	H108	H	0.067728	0.482272	0.428835
	H109	H	-0.104384	0.480705	-0.081117
	H110	H	-0.108312	0.419667	0.106345
	H111	H	0.066898	0.528102	0.130773
	H112	H	0.060631	0.530458	-0.177939
	C113	C	-0.019508	0.395806	0.612411
	H114	H	-0.060279	0.361501	0.658232
	C115	C	-0.016862	0.585203	-0.628131
	H116	H	0.023998	0.609696	-0.693066
	C117	C	0.017167	1.073945	0.448251
	C118	C	-0.029476	1.029165	0.362149
	C119	C	-0.025971	1.006632	0.193845
	C120	C	0.024246	1.027635	0.101341
	C121	C	0.071020	1.071646	0.192374
	C122	C	0.067576	1.094474	0.360083
	C123	C	0.027243	1.004459	-0.084199
	C124	C	0.076141	1.013285	-0.153300
	C125	C	0.077746	0.990310	-0.324249
	C126	C	0.030186	0.956248	-0.433236
	C127	C	-0.018575	0.947611	-0.366598
	C128	C	-0.019766	0.971836	-0.199326
	H129	H	0.115690	0.996949	-0.372611
	H130	H	0.104331	1.128854	0.424946
	H131	H	-0.055712	0.922281	-0.450510
	H132	H	-0.068755	1.012812	0.428282
	H133	H	0.113501	1.036882	-0.069368
	H134	H	0.110815	1.089161	0.129705
	H135	H	-0.063355	0.971752	0.135064
	H136	H	-0.057851	0.966394	-0.161287
	C137	C	0.013905	1.099661	0.622201
	H138	H	0.051040	1.140060	0.654386
	C139	C	0.028954	0.928091	-0.607727
	H140	H	-0.012247	0.893227	-0.648260
	C141	C	0.480961	0.730044	0.250554
	C142	C	0.345190	0.687942	0.635711
	C143	C	0.512051	0.862484	-0.158005
	C144	C	0.467505	0.604952	-0.128812
	C145	C	0.621466	0.788395	0.656354
	C146	C	0.367564	0.733090	0.510208
	C147	C	0.485224	0.807939	-0.213143
	C148	C	0.512844	0.635665	-0.006316
	C149	C	0.567239	0.750470	0.709570
	C150	C	0.407726	0.744275	0.378632
	C151	C	0.474925	0.766810	-0.083522
	C152	C	0.515479	0.672492	0.123387
	C153	C	0.523848	0.732012	0.580704
	C154	C	0.427720	0.711274	0.366086
	C155	C	0.493191	0.777655	0.107139
	C156	C	0.473246	0.680564	0.137285
	C157	C	0.531335	0.752252	0.392841
	C158	C	0.398413	0.661505	0.468361
	C159	C	0.521349	0.832861	0.161550
	C160	C	0.424845	0.643555	0.036059
	C161	C	0.585974	0.791400	0.340278
	C162	C	0.357953	0.649988	0.599824
	C163	C	0.531049	0.874359	0.032281
	C164	C	0.421880	0.606335	-0.093096
	C165	C	0.629975	0.809619	0.469102
	H166	H	0.354462	0.760546	0.517933
	H167	H	0.472975	0.797801	-0.361808
	H168	H	0.547129	0.632044	-0.016345
	H169	H	0.559194	0.735917	0.856552
	H170	H	0.424647	0.780432	0.288705
	H171	H	0.451964	0.725431	-0.134584
	H172	H	0.552141	0.696495	0.210353
	H173	H	0.483474	0.700925	0.630174
	H174	H	0.409248	0.632411	0.450362
	H175	H	0.535561	0.843466	0.309187
	H176	H	0.389718	0.645668	0.053362
	H177	H	0.594282	0.807446	0.194245
	H178	H	0.336876	0.612075	0.681605
	H179	H	0.553479	0.916425	0.078431
	H180	H	0.384594	0.579020	-0.173500
	H181	H	0.671320	0.840433	0.424887
	N182	N	0.311298	0.680222	0.791297
	N183	N	0.520242	0.901831	-0.298092
	N184	N	0.466729	0.573734	-0.281454
	N185	N	0.662874	0.803545	0.797167
	C186	C	-0.015880	0.234819	0.254079
	C187	C	-0.028923	0.108176	-0.117464
	C188	C	0.124004	0.296352	0.665431
	C189	C	-0.154549	0.189820	0.630629
	C190	C	0.016979	0.366934	-0.159438
	C191	C	0.017138	0.140885	0.000081
	C192	C	0.069970	0.256610	0.715672
	C193	C	-0.130719	0.236143	0.510274
	C194	C	-0.011926	0.311957	-0.211231
	C195	C	0.019561	0.177987	0.127827
	C196	C	0.026794	0.237292	0.585275
	C197	C	-0.089815	0.248095	0.381020
	C198	C	-0.022712	0.270990	-0.080039
	C199	C	-0.022977	0.185633	0.140751
	C200	C	0.034387	0.257352	0.397097
	C201	C	-0.069406	0.215457	0.368683
	C202	C	-0.004125	0.282190	0.110264
	C203	C	-0.071318	0.148199	0.040044
	C204	C	0.089005	0.296928	0.345506
	C205	C	-0.098280	0.165708	0.471181
	C206	C	0.024203	0.337507	0.163315
	C207	C	-0.074164	0.110605	-0.086847
	C208	C	0.132826	0.315986	0.475846
	C209	C	-0.139530	0.153352	0.600181
	C210	C	0.034374	0.378865	0.032483
	H211	H	0.051830	0.137911	-0.010009
	H212	H	0.061794	0.241852	0.862405
	H213	H	-0.143952	0.263492	0.518183
	H214	H	-0.024634	0.301416	-0.359364
	H215	H	0.056448	0.202783	0.213012
	H216	H	-0.013464	0.205640	0.634010
	H217	H	-0.072509	0.284692	0.293250
	H218	H	-0.046301	0.229466	-0.129805
	H219	H	-0.106558	0.150192	0.056049
	H220	H	0.097435	0.312585	0.198965
	H221	H	-0.086621	0.137203	0.454780
	H222	H	0.038184	0.348317	0.311072
	H223	H	-0.111289	0.083332	-0.168143
	H224	H	0.174201	0.346739	0.431754
	H225	H	-0.159964	0.115613	0.682997
	H226	H	0.056557	0.420975	0.078009
	N227	N	-0.028902	0.078365	-0.273558
	N228	N	0.165427	0.310121	0.804730
	N229	N	-0.187508	0.182409	0.789030
	N230	N	0.023660	0.405823	-0.298663
	C231	C	0.525221	0.450787	0.557837
	C232	C	0.572701	0.484686	0.667381
	C233	C	0.570998	0.507428	0.838736
	C234	C	0.522055	0.498445	0.908113
	C235	C	0.475056	0.465728	0.793033
	C236	C	0.476341	0.441697	0.625326
	C237	C	0.519118	0.521567	1.093948
	C238	C	0.468931	0.501017	1.186016
	C239	C	0.465623	0.523602	1.354590
	C240	C	0.512462	0.567916	1.441656
	C241	C	0.562792	0.588177	1.353326
	C242	C	0.566030	0.565304	1.185398
	H243	H	0.426365	0.507646	1.420235
	H244	H	0.439210	0.416280	0.541474
	H245	H	0.599679	0.622345	1.418397
	H246	H	0.610706	0.491511	0.618783
	H247	H	0.431379	0.466509	1.126582
	H248	H	0.436881	0.460026	0.831446
	H249	H	0.608361	0.530989	0.922650
	H250	H	0.605811	0.582600	1.122961
	C251	C	0.524256	0.422974	0.382695
	H252	H	0.483179	0.388071	0.341406
	C253	C	0.509460	0.594253	1.614234
	H254	H	0.546797	0.634621	1.645369
	C255	C	0.477724	1.050177	-0.459292
	C256	C	0.430721	1.021061	-0.346420
	C257	C	0.430572	0.996480	-0.172878
	C258	C	0.477211	0.999364	-0.103073
	C259	C	0.523724	1.027522	-0.220319
	C260	C	0.524176	1.052733	-0.392086
	C261	C	0.477704	0.973913	0.085006
	C262	C	0.526708	0.990949	0.185065
	C263	C	0.527210	0.965788	0.356167
	C264	C	0.478544	0.922840	0.438539
	C265	C	0.429482	0.906425	0.342247
	C266	C	0.429079	0.931201	0.170581
	H267	H	0.565507	0.978773	0.428203
	H268	H	0.560938	1.074620	-0.477584
	H269	H	0.391292	0.873257	0.403010
	H270	H	0.394577	1.019056	-0.395391
	H271	H	0.565350	1.024599	0.128973
	H272	H	0.559910	1.028736	-0.179273
	H273	H	0.393848	0.976324	-0.087348
	H274	H	0.390178	0.916133	0.100201
	C275	C	0.481227	1.081726	-0.632028
	H276	H	0.522069	1.106855	-0.696740
	C277	C	0.477570	0.892342	0.610587
	H278	H	0.436571	0.857943	0.654132
	C279	C	0.323936	0.267787	0.940258
	C280	C	0.281647	0.219628	0.853126
	C281	C	0.256989	0.221148	0.682251
	C282	C	0.273906	0.270745	0.587118
	C283	C	0.315845	0.318845	0.677686
	C284	C	0.340136	0.317413	0.849160
	C285	C	0.249056	0.272287	0.399005
	C286	C	0.251514	0.319000	0.333295
	C287	C	0.227378	0.319694	0.159736
	C288	C	0.199158	0.273500	0.042783
	C289	C	0.197104	0.227028	0.105832
	C290	C	0.221889	0.226661	0.277556
	H291	H	0.228998	0.355840	0.113941
	H292	H	0.372730	0.355226	0.913881
	H293	H	0.175926	0.190899	0.017105
	H294	H	0.268785	0.180905	0.921223
	H295	H	0.270956	0.355063	0.422063
	H296	H	0.330700	0.358178	0.611450
	H297	H	0.223846	0.182819	0.622429
	H298	H	0.221112	0.190535	0.315204
	C299	C	0.354018	0.267629	1.111795
	H300	H	0.388179	0.308284	1.159166
	C301	C	0.167811	0.270573	-0.129770
	H302	H	0.143404	0.230166	-0.197829
	C303	C	0.678966	0.234774	0.944353
	C304	C	0.723421	0.281670	0.858127
	C305	C	0.746125	0.278558	0.689531
	C306	C	0.725565	0.228514	0.596601
	C307	C	0.681642	0.181535	0.687067
	C308	C	0.658647	0.184583	0.855047
	C309	C	0.748920	0.225842	0.410912
	C310	C	0.740103	0.177048	0.340978
	C311	C	0.763101	0.175614	0.169830
	C312	C	0.797095	0.223224	0.061111
	C313	C	0.806009	0.271957	0.129143
	C314	C	0.781737	0.272978	0.296640
	H315	H	0.756403	0.137721	0.120773
	H316	H	0.624357	0.147659	0.919426
	H317	H	0.831494	0.309191	0.045963
	H318	H	0.739446	0.320820	0.924596
	H319	H	0.716466	0.139605	0.424326
	H320	H	0.664297	0.141863	0.623780
	H321	H	0.780772	0.316133	0.630865
	H322	H	0.787341	0.311057	0.335535
	C323	C	0.652836	0.237626	1.117918
	H324	H	0.612527	0.200281	1.149513
	C325	C	0.825209	0.224471	-0.113618
	H326	H	0.859904	0.265651	-0.154920
	C327	C	0.516029	0.265043	0.750363
	C328	C	0.383376	0.231001	0.337041
	C329	C	0.643550	0.279801	0.378586
	C330	C	0.455481	0.125245	1.161053
	C331	C	0.559470	0.403034	1.127761
	C332	C	0.438372	0.260137	0.285025
	C333	C	0.611045	0.233560	0.495499
	C334	C	0.494970	0.179315	1.211538
	C335	C	0.513169	0.378889	1.007089
	C336	C	0.479497	0.271258	0.416119
	C337	C	0.573668	0.230612	0.623314
	C338	C	0.514036	0.222473	1.081305
	C339	C	0.501699	0.338219	0.877581
	C340	C	0.468452	0.252802	0.606561
	C341	C	0.565508	0.272767	0.636910
	C342	C	0.493942	0.214818	0.893122
	C343	C	0.534819	0.318351	0.865272
	C344	C	0.413090	0.224133	0.659739
	C345	C	0.602678	0.321282	0.536650
	C346	C	0.454696	0.160167	0.841219
	C347	C	0.584526	0.347565	0.968074
	C348	C	0.371567	0.213635	0.529010
	C349	C	0.640569	0.324663	0.409766
	C350	C	0.435910	0.116378	0.971348
	C351	C	0.596404	0.388591	1.097305
	H352	H	0.448798	0.272816	0.136820
	H353	H	0.614411	0.199140	0.484862
	H354	H	0.509680	0.187534	1.358341
	H355	H	0.485455	0.391690	1.014832
	H356	H	0.521027	0.295041	0.366227
	H357	H	0.549066	0.193615	0.708046
	H358	H	0.545488	0.262780	1.130181
	H359	H	0.465100	0.320670	0.789562
	H360	H	0.402387	0.210180	0.807562
	H361	H	0.600233	0.356221	0.553003
	H362	H	0.439051	0.151688	0.694650
	H363	H	0.613402	0.336366	0.951664
	H364	H	0.329440	0.191243	0.574685
	H365	H	0.667662	0.361921	0.328933
	H366	H	0.405395	0.074970	0.927016
	H367	H	0.634138	0.409305	1.180278
	N368	N	0.344389	0.224288	0.197996
	N369	N	0.673704	0.280277	0.222639
	N370	N	0.441692	0.083815	1.300110
	N371	N	0.566510	0.435802	1.286235
