data_Molecule from CHK

_cell_length_a		29.586741
_cell_length_b		29.578838
_cell_length_c		6.945698
_cell_angle_alpha	88.852958
_cell_angle_beta	91.135275
_cell_angle_gamma	125.199792
_symmetry_space_group_name_H-M	'P 1'
_symmetry_Int_Tables_number		1

loop_
	_symmetry_equiv_pos_as_xyz
	x,y,z

loop_
	_atom_site_label
	_atom_site_type_symbol
	_atom_site_fract_x
	_atom_site_fract_y
	_atom_site_fract_z
	C0	C	0.019373	0.769916	0.754844
	C1	C	-0.041640	0.628142	1.162145
	C2	C	0.063925	0.907328	1.139443
	C3	C	-0.113888	0.737961	0.346030
	C4	C	0.144344	0.783109	0.373811
	C5	C	-0.003017	0.683064	1.215488
	C6	C	0.018337	0.884537	1.013727
	C7	C	-0.058631	0.765937	0.291649
	C8	C	0.112923	0.737448	0.497354
	C9	C	0.016283	0.726862	1.086207
	C10	C	0.006475	0.843922	0.882196
	C11	C	-0.017266	0.776564	0.421536
	C12	C	0.076256	0.734977	0.627783
	C13	C	-0.003667	0.719074	0.897549
	C14	C	0.039294	0.823967	0.869367
	C15	C	-0.028580	0.757393	0.611548
	C16	C	0.068986	0.777663	0.641184
	C17	C	-0.043905	0.663739	0.845387
	C18	C	0.089502	0.853562	0.972642
	C19	C	-0.084474	0.728289	0.665433
	C20	C	0.106932	0.826516	0.539298
	C21	C	-0.062959	0.619326	0.974633
	C22	C	0.101698	0.894485	1.104088
	C23	C	-0.126215	0.718261	0.535915
	C24	C	0.144019	0.829336	0.409442
	H25	H	0.011325	0.691288	1.362994
	H26	H	-0.009107	0.897470	1.021790
	H27	H	-0.048160	0.778643	0.143141
	H28	H	0.115707	0.702685	0.487296
	H29	H	0.047738	0.767809	1.136090
	H30	H	-0.030227	0.826435	0.793032
	H31	H	0.024646	0.800240	0.370897
	H32	H	0.051474	0.697900	0.714789
	H33	H	-0.060006	0.655192	0.699093
	H34	H	0.118397	0.842612	0.955087
	H35	H	-0.095445	0.713587	0.812851
	H36	H	0.105651	0.862112	0.556603
	H37	H	-0.094501	0.577448	0.930591
	H38	H	0.139960	0.915814	1.186404
	H39	H	-0.168829	0.694997	0.581538
	H40	H	0.172000	0.866949	0.328349
	N41	N	-0.057027	0.586424	1.303193
	N42	N	0.072126	0.941615	1.294980
	N43	N	-0.153414	0.729371	0.205418
	N44	N	0.175274	0.783626	0.220375
	C45	C	0.295700	0.721552	0.061154
	C46	C	0.260990	0.673752	0.171997
	C47	C	0.238312	0.675805	0.343135
	C48	C	0.248111	0.725405	0.410731
	C49	C	0.281211	0.772575	0.293433
	C50	C	0.305185	0.770969	0.126007
	C51	C	0.225308	0.728908	0.596520
	C52	C	0.246968	0.779973	0.686645
	C53	C	0.224685	0.783846	0.855087
	C54	C	0.179492	0.736736	0.943664
	C55	C	0.158371	0.685512	0.857996
	C56	C	0.180975	0.681711	0.690292
	H57	H	0.241479	0.823763	0.919168
	H58	H	0.330980	0.808279	0.040541
	H59	H	0.123705	0.648383	0.924916
	H60	H	0.253675	0.635296	0.125043
	H61	H	0.282122	0.817782	0.625708
	H62	H	0.287248	0.811113	0.329898
	H63	H	0.214248	0.638245	0.428435
	H64	H	0.163046	0.641252	0.630002
	C65	C	0.323791	0.722429	-0.113223
	H66	H	0.359318	0.764050	-0.155170
	C67	C	0.153646	0.740190	1.116904
	H68	H	0.112578	0.702495	1.149337
	C69	C	0.697924	0.770072	0.042759
	C70	C	0.727866	0.817857	0.154585
	C71	C	0.752635	0.818493	0.328480
	C72	C	0.749225	0.771638	0.399399
	C73	C	0.720585	0.724489	0.282427
	C74	C	0.695175	0.723536	0.110440
	C75	C	0.774802	0.771497	0.587757
	C76	C	0.757247	0.722023	0.687577
	C77	C	0.782508	0.721756	0.858805
	C78	C	0.826145	0.771132	0.941425
	C79	C	0.842817	0.820673	0.846141
	C80	C	0.817945	0.820848	0.674295
	H81	H	0.769127	0.683099	0.930607
	H82	H	0.672932	0.686288	0.025136
	H83	H	0.876314	0.859422	0.907748
	H84	H	0.730272	0.854160	0.104663
	H85	H	0.723091	0.682795	0.631255
	H86	H	0.719178	0.688208	0.323729
	H87	H	0.773367	0.855780	0.413317
	H88	H	0.833272	0.860162	0.604644
	C89	C	0.666382	0.765867	-0.131140
	H90	H	0.641085	0.724445	-0.195480
	C91	C	0.856563	0.772412	1.114336
	H92	H	0.891406	0.814006	1.158618
	C93	C	-0.018157	0.426438	0.442114
	C94	C	0.030778	0.469888	0.356481
	C95	C	0.029642	0.494849	0.185802
	C96	C	-0.020326	0.477166	0.089603
	C97	C	-0.069221	0.434329	0.179384
	C98	C	-0.068170	0.409724	0.350674
	C99	C	-0.021363	0.502288	-0.098586
	C100	C	-0.068252	0.499385	-0.165522
	C101	C	-0.068342	0.523817	-0.339319
	C102	C	-0.021271	0.552922	-0.454867
	C103	C	0.025270	0.555173	-0.391027
	C104	C	0.025028	0.530092	-0.219180
	H105	H	-0.104634	0.521807	-0.386307
	H106	H	-0.106583	0.376403	0.414768
	H107	H	0.061950	0.576773	-0.479255
	H108	H	0.069794	0.483331	0.425360
	H109	H	-0.104930	0.479308	-0.077619
	H110	H	-0.108864	0.419015	0.112590
	H111	H	0.068565	0.528842	0.126953
	H112	H	0.061227	0.531053	-0.180872
	C113	C	-0.018394	0.396198	0.613892
	H114	H	-0.059657	0.361470	0.661371
	C115	C	-0.017621	0.584195	-0.628826
	H116	H	0.023541	0.609220	-0.695164
	C117	C	0.016242	1.073261	0.449341
	C118	C	-0.030863	1.027998	0.361111
	C119	C	-0.027054	1.005748	0.192487
	C120	C	0.023941	1.027517	0.101715
	C121	C	0.071144	1.071959	0.195026
	C122	C	0.067406	1.094518	0.363006
	C123	C	0.027295	1.004681	-0.084269
	C124	C	0.076815	1.014508	-0.152783
	C125	C	0.078668	0.991715	-0.323987
	C126	C	0.030735	0.956829	-0.433896
	C127	C	-0.018617	0.947268	-0.368007
	C128	C	-0.020032	0.971339	-0.200539
	H129	H	0.117078	0.999098	-0.371785
	H130	H	0.104531	1.129244	0.429651
	H131	H	-0.056045	0.921326	-0.452674
	H132	H	-0.070734	1.011064	0.425783
	H133	H	0.114481	1.038738	-0.068220
	H134	H	0.111557	1.090008	0.134152
	H135	H	-0.064862	0.970494	0.132046
	H136	H	-0.058562	0.965198	-0.163315
	C137	C	0.012780	1.098774	0.623608
	H138	H	0.050489	1.139715	0.657067
	C139	C	0.029601	0.928669	-0.608500
	H140	H	-0.012065	0.893010	-0.649303
	C141	C	0.481481	0.730486	0.250122
	C142	C	0.344632	0.687554	0.634989
	C143	C	0.514681	0.864122	-0.159353
	C144	C	0.466345	0.604217	-0.129074
	C145	C	0.623114	0.790033	0.656551
	C146	C	0.367746	0.733105	0.508843
	C147	C	0.486848	0.808910	-0.214177
	C148	C	0.512117	0.635359	-0.005853
	C149	C	0.568160	0.751345	0.709441
	C150	C	0.408212	0.744507	0.377377
	C151	C	0.475933	0.767420	-0.084284
	C152	C	0.515210	0.672507	0.123831
	C153	C	0.524424	0.732547	0.580392
	C154	C	0.427777	0.711322	0.365508
	C155	C	0.494527	0.778556	0.106365
	C156	C	0.473010	0.680471	0.137052
	C157	C	0.532289	0.753179	0.392640
	C158	C	0.397603	0.661024	0.468262
	C159	C	0.523703	0.834453	0.160438
	C160	C	0.424011	0.642896	0.035298
	C161	C	0.587682	0.793092	0.340401
	C162	C	0.356864	0.649302	0.599751
	C163	C	0.534071	0.876325	0.030843
	C164	C	0.420594	0.605373	-0.093970
	C165	C	0.632026	0.811694	0.469469
	H166	H	0.355031	0.760749	0.515986
	H167	H	0.474263	0.798554	-0.362807
	H168	H	0.546437	0.631876	-0.015371
	H169	H	0.559837	0.736455	0.856338
	H170	H	0.425743	0.781015	0.287045
	H171	H	0.452182	0.725518	-0.135112
	H172	H	0.552249	0.696887	0.211235
	H173	H	0.483472	0.700853	0.629611
	H174	H	0.407993	0.631693	0.450569
	H175	H	0.538156	0.845304	0.308113
	H176	H	0.388813	0.644840	0.052221
	H177	H	0.596319	0.809425	0.194386
	H178	H	0.335179	0.611020	0.682079
	H179	H	0.557311	0.918926	0.076657
	H180	H	0.382893	0.577691	-0.174992
	H181	H	0.673945	0.843145	0.425563
	N182	N	0.310538	0.679747	0.790587
	N183	N	0.523224	0.903708	-0.299776
	N184	N	0.465337	0.572840	-0.281912
	N185	N	0.664769	0.805359	0.797630
	C186	C	-0.016434	0.234190	0.254861
	C187	C	-0.030657	0.106646	-0.116750
	C188	C	0.124757	0.297380	0.666460
	C189	C	-0.156166	0.187914	0.632190
	C190	C	0.018221	0.367492	-0.159258
	C191	C	0.015824	0.139884	0.001667
	C192	C	0.070020	0.256765	0.716558
	C193	C	-0.131693	0.234685	0.511335
	C194	C	-0.011485	0.311865	-0.210937
	C195	C	0.018549	0.177223	0.129411
	C196	C	0.026442	0.236954	0.586088
	C197	C	-0.090524	0.246966	0.381785
	C198	C	-0.022821	0.270532	-0.079575
	C199	C	-0.024083	0.184581	0.141631
	C200	C	0.034316	0.257361	0.397979
	C201	C	-0.070445	0.214247	0.369592
	C202	C	-0.004027	0.281993	0.110844
	C203	C	-0.072972	0.146484	0.040326
	C204	C	0.089646	0.297808	0.346509
	C205	C	-0.100060	0.163948	0.472488
	C206	C	0.025113	0.337968	0.163784
	C207	C	-0.076114	0.108675	-0.086721
	C208	C	0.133873	0.317387	0.476948
	C209	C	-0.141578	0.151261	0.601857
	C210	C	0.035857	0.379695	0.032756
	H211	H	0.050643	0.137180	-0.007722
	H212	H	0.061636	0.241697	0.863250
	H213	H	-0.144599	0.262164	0.519091
	H214	H	-0.024391	0.301127	-0.359151
	H215	H	0.055799	0.202465	0.215123
	H216	H	-0.014357	0.204615	0.634679
	H217	H	-0.072714	0.283926	0.293714
	H218	H	-0.047033	0.228502	-0.129286
	H219	H	-0.108375	0.148155	0.055988
	H220	H	0.098319	0.313725	0.199947
	H221	H	-0.088751	0.135292	0.456091
	H222	H	0.039270	0.349006	0.311643
	H223	H	-0.113624	0.080945	-0.168622
	H224	H	0.175787	0.348832	0.432981
	H225	H	-0.162542	0.113130	0.685045
	H226	H	0.058680	0.422307	0.078196
	N227	N	-0.030713	0.076799	-0.273154
	N228	N	0.166477	0.311450	0.805854
	N229	N	-0.189281	0.180357	0.790869
	N230	N	0.025267	0.406636	-0.298710
	C231	C	0.525449	0.451410	0.556643
	C232	C	0.573340	0.486107	0.666941
	C233	C	0.571465	0.508719	0.838506
	C234	C	0.521940	0.498815	0.907357
	C235	C	0.474573	0.465385	0.791346
	C236	C	0.476008	0.441451	0.623485
	C237	C	0.518762	0.521700	1.093524
	C238	C	0.467872	0.500389	1.184368
	C239	C	0.464385	0.522817	1.353141
	C240	C	0.511736	0.567737	1.441614
	C241	C	0.562754	0.588722	1.354602
	C242	C	0.566165	0.565985	1.186557
	H243	H	0.424599	0.506291	1.417790
	H244	H	0.438562	0.415432	0.538987
	H245	H	0.600049	0.623344	1.420863
	H246	H	0.611779	0.493614	0.618836
	H247	H	0.429879	0.465418	1.123777
	H248	H	0.435989	0.459043	0.829096
	H249	H	0.609152	0.532882	0.922980
	H250	H	0.606503	0.583809	1.125428
	C251	C	0.524551	0.423587	0.381405
	H252	H	0.483011	0.387873	0.339966
	C253	C	0.508661	0.594007	1.614329
	H254	H	0.546568	0.634981	1.646142
	C255	C	0.476878	1.049621	-0.459779
	C256	C	0.430062	1.020673	-0.342997
	C257	C	0.430528	0.996572	-0.169000
	C258	C	0.477607	0.999758	-0.102588
	C259	C	0.523880	1.027713	-0.223748
	C260	C	0.523747	1.052481	-0.395956
	C261	C	0.478758	0.974772	0.085828
	C262	C	0.528693	0.991960	0.181246
	C263	C	0.529696	0.967112	0.352522
	C264	C	0.480657	0.924338	0.439669
	C265	C	0.430723	0.907866	0.348214
	C266	C	0.429802	0.932337	0.176459
	H267	H	0.568661	0.980182	0.420926
	H268	H	0.560351	1.074233	-0.484583
	H269	H	0.392235	0.874926	0.413029
	H270	H	0.393611	1.018451	-0.389321
	H271	H	0.567708	1.025464	0.121339
	H272	H	0.560322	1.029112	-0.185547
	H273	H	0.393966	0.976584	-0.080543
	H274	H	0.390146	0.917219	0.110246
	C275	C	0.479979	1.080868	-0.633110
	H276	H	0.520955	1.106176	-0.700596
	C277	C	0.479949	0.893992	0.611872
	H278	H	0.438484	0.859421	0.658442
	C279	C	0.322752	0.266283	0.940972
	C280	C	0.280471	0.217728	0.850046
	C281	C	0.256111	0.219673	0.679079
	C282	C	0.273323	0.270137	0.587658
	C283	C	0.315147	0.318593	0.682301
	C284	C	0.339151	0.316724	0.853812
	C285	C	0.248888	0.272200	0.399273
	C286	C	0.251821	0.319389	0.335894
	C287	C	0.228035	0.320509	0.162051
	C288	C	0.199685	0.274275	0.042452
	C289	C	0.197192	0.227365	0.103105
	C290	C	0.221662	0.226599	0.275065
	H291	H	0.230003	0.356992	0.118065
	H292	H	0.371645	0.354844	0.921830
	H293	H	0.175929	0.191219	0.012233
	H294	H	0.267410	0.178374	0.915171
	H295	H	0.271338	0.355474	0.426623
	H296	H	0.330151	0.358620	0.619478
	H297	H	0.222977	0.180961	0.616255
	H298	H	0.220577	0.190178	0.310634
	C299	C	0.352689	0.265887	1.112510
	H300	H	0.387095	0.307004	1.162428
	C301	C	0.168480	0.271553	-0.130343
	H302	H	0.143727	0.230883	-0.200158
	C303	C	0.679108	0.235396	0.945792
	C304	C	0.724411	0.282690	0.858406
	C305	C	0.746897	0.279189	0.689848
	C306	C	0.725260	0.228337	0.598191
	C307	C	0.680544	0.180972	0.689967
	C308	C	0.657753	0.184407	0.857841
	C309	C	0.748304	0.225221	0.412381
	C310	C	0.738616	0.175748	0.343931
	C311	C	0.761425	0.173975	0.172697
	C312	C	0.796087	0.221920	0.062439
	C313	C	0.805813	0.271304	0.128927
	C314	C	0.781710	0.272642	0.296465
	H315	H	0.754108	0.135589	0.124859
	H316	H	0.622803	0.147166	0.923187
	H317	H	0.831797	0.308783	0.044446
	H318	H	0.741248	0.322446	0.923907
	H319	H	0.714491	0.138070	0.428612
	H320	H	0.662424	0.140690	0.627789
	H321	H	0.782227	0.317100	0.630190
	H322	H	0.787879	0.311167	0.334094
	C323	C	0.653119	0.238570	1.119179
	H324	H	0.612114	0.200777	1.151429
	C325	C	0.824161	0.222991	-0.112338
	H326	H	0.859572	0.264664	-0.154302
	C327	C	0.515695	0.265066	0.749241
	C328	C	0.381933	0.228944	0.335252
	C329	C	0.644471	0.281364	0.378916
	C330	C	0.454022	0.124241	1.161815
	C331	C	0.560124	0.404252	1.126417
	C332	C	0.437520	0.258819	0.283118
	C333	C	0.611559	0.234720	0.497106
	C334	C	0.494603	0.179079	1.210948
	C335	C	0.513339	0.379279	1.005619
	C336	C	0.478988	0.270538	0.414346
	C337	C	0.573789	0.231351	0.624344
	C338	C	0.513965	0.222534	1.080107
	C339	C	0.501611	0.338300	0.876070
	C340	C	0.467710	0.252012	0.605113
	C341	C	0.565666	0.273472	0.636223
	C342	C	0.493131	0.214425	0.892569
	C343	C	0.534928	0.318908	0.863856
	C344	C	0.411737	0.222556	0.658324
	C345	C	0.603344	0.322542	0.534879
	C346	C	0.452860	0.158984	0.841867
	C347	C	0.585204	0.349062	0.966594
	C348	C	0.369867	0.211418	0.527417
	C349	C	0.641582	0.326327	0.408336
	C350	C	0.433700	0.114897	0.972714
	C351	C	0.597337	0.390388	1.095953
	H352	H	0.448109	0.271639	0.134743
	H353	H	0.614855	0.200267	0.487732
	H354	H	0.509947	0.187650	1.357263
	H355	H	0.485420	0.391643	1.013284
	H356	H	0.520976	0.294881	0.364273
	H357	H	0.548803	0.193991	0.709860
	H358	H	0.546270	0.263436	1.127969
	H359	H	0.464629	0.320107	0.787996
	H360	H	0.400825	0.208512	0.806361
	H361	H	0.600993	0.357548	0.550105
	H362	H	0.436718	0.150103	0.695632
	H363	H	0.614326	0.338362	0.950022
	H364	H	0.327274	0.188417	0.573100
	H365	H	0.668982	0.363950	0.326402
	H366	H	0.402314	0.072893	0.929436
	H367	H	0.635475	0.411759	1.179022
	N368	N	0.342749	0.221931	0.196071
	N369	N	0.674783	0.281896	0.223160
	N370	N	0.440086	0.082630	1.301499
	N371	N	0.567298	0.437219	1.285007
