data_Molecule from CHK

_cell_length_a		30.317449
_cell_length_b		30.308659
_cell_length_c		6.940124
_cell_angle_alpha	87.682309
_cell_angle_beta	92.330960
_cell_angle_gamma	104.472675
_symmetry_space_group_name_H-M	'P 1'
_symmetry_Int_Tables_number		1

loop_
	_symmetry_equiv_pos_as_xyz
	x,y,z

loop_
	_atom_site_label
	_atom_site_type_symbol
	_atom_site_fract_x
	_atom_site_fract_y
	_atom_site_fract_z
	C0	C	0.021714	0.770090	0.754082
	C1	C	-0.010303	0.648973	1.157897
	C2	C	0.040354	0.886916	1.136413
	C3	C	-0.097431	0.764209	0.347704
	C4	C	0.133399	0.766871	0.368873
	C5	C	0.012940	0.692358	1.218143
	C6	C	0.001669	0.874623	1.013552
	C7	C	-0.052344	0.782237	0.293315
	C8	C	0.112657	0.728234	0.480610
	C9	C	0.023915	0.729766	1.090210
	C10	C	-0.002867	0.839760	0.882913
	C11	C	-0.015436	0.784916	0.422484
	C12	C	0.079723	0.730015	0.613281
	C13	C	0.010571	0.726926	0.895474
	C14	C	0.030416	0.815241	0.869711
	C15	C	-0.020722	0.767678	0.611785
	C16	C	0.065232	0.769828	0.638313
	C17	C	-0.014012	0.683532	0.835960
	C18	C	0.071735	0.832756	0.970525
	C19	C	-0.065969	0.749066	0.666321
	C20	C	0.091102	0.809553	0.547729
	C21	C	-0.024439	0.645613	0.963420
	C22	C	0.076810	0.868298	1.097934
	C23	C	-0.103211	0.746778	0.537581
	C24	C	0.125024	0.808207	0.419662
	H25	H	0.021189	0.697415	1.369583
	H26	H	-0.025392	0.891923	1.020326
	H27	H	-0.045334	0.792717	0.145137
	H28	H	0.121852	0.696403	0.463295
	H29	H	0.042949	0.761834	1.146178
	H30	H	-0.033652	0.830691	0.793714
	H31	H	0.018259	0.800420	0.372123
	H32	H	0.064137	0.699281	0.694520
	H33	H	-0.025344	0.679356	0.686141
	H34	H	0.099742	0.817024	0.954218
	H35	H	-0.072224	0.736009	0.813058
	H36	H	0.083374	0.841859	0.572638
	H37	H	-0.043816	0.612835	0.912961
	H38	H	0.108777	0.881202	1.175790
	H39	H	-0.137510	0.731246	0.583792
	H40	H	0.144610	0.839186	0.350897
	N41	N	-0.021058	0.612000	1.293027
	N42	N	0.044571	0.915988	1.292956
	N43	N	-0.134468	0.760587	0.214095
	N44	N	0.161599	0.766855	0.213086
	C45	C	0.305193	0.738031	0.055214
	C46	C	0.289596	0.697132	0.161023
	C47	C	0.266747	0.695824	0.332236
	C48	C	0.257453	0.735096	0.405857
	C49	C	0.272856	0.775856	0.296592
	C50	C	0.296564	0.777443	0.127928
	C51	C	0.232611	0.733944	0.589463
	C52	C	0.233193	0.774013	0.686770
	C53	C	0.209688	0.773221	0.855581
	C54	C	0.184508	0.732219	0.938290
	C55	C	0.183836	0.692034	0.843670
	C56	C	0.207259	0.692919	0.674407
	H57	H	0.210282	0.804691	0.925671
	H58	H	0.307876	0.809493	0.048087
	H59	H	0.164679	0.659822	0.904763
	H60	H	0.296615	0.666426	0.108842
	H61	H	0.252540	0.806695	0.631756
	H62	H	0.265164	0.806911	0.340072
	H63	H	0.257295	0.663654	0.412129
	H64	H	0.205084	0.660962	0.606189
	C65	C	0.331125	0.740588	-0.122095
	H66	H	0.348108	0.775361	-0.171341
	C67	C	0.158547	0.731392	1.114527
	H68	H	0.134781	0.698575	1.149967
	C69	C	0.677879	0.749359	0.082903
	C70	C	0.706325	0.792587	0.117748
	C71	C	0.736024	0.799979	0.278546
	C72	C	0.739034	0.764579	0.412448
	C73	C	0.710882	0.721154	0.374064
	C74	C	0.680990	0.713759	0.214499
	C75	C	0.770836	0.772064	0.585581
	C76	C	0.762218	0.744089	0.753862
	C77	C	0.792789	0.749638	0.911722
	C78	C	0.833484	0.783886	0.910425
	C79	C	0.841731	0.812858	0.745632
	C80	C	0.811327	0.806982	0.587498
	H81	H	0.785528	0.727349	1.038819
	H82	H	0.659511	0.679922	0.190857
	H83	H	0.873158	0.839401	0.739628
	H84	H	0.704405	0.820463	0.017360
	H85	H	0.730695	0.717832	0.762859
	H86	H	0.712990	0.692502	0.469215
	H87	H	0.756480	0.834188	0.302654
	H88	H	0.820102	0.828715	0.459974
	C89	C	0.644400	0.740938	-0.080072
	H90	H	0.622724	0.705952	-0.084669
	C91	C	0.868037	0.788591	1.069343
	H92	H	0.897247	0.818225	1.052722
	C93	C	-0.032779	0.417578	0.409753
	C94	C	0.000903	0.458684	0.412615
	C95	C	0.006187	0.489460	0.255499
	C96	C	-0.021491	0.480646	0.086460
	C97	C	-0.055899	0.439763	0.086901
	C98	C	-0.061514	0.409151	0.244288
	C99	C	-0.014159	0.512593	-0.086179
	C100	C	-0.049551	0.515353	-0.220482
	C101	C	-0.042280	0.545144	-0.380992
	C102	C	0.000806	0.573949	-0.415049
	C103	C	0.036381	0.571156	-0.282818
	C104	C	0.029107	0.541187	-0.123499
	H105	H	-0.070138	0.546831	-0.481823
	H106	H	-0.087604	0.377408	0.237003
	H107	H	0.070103	0.592939	-0.305772
	H108	H	0.022994	0.466086	0.540244
	H109	H	-0.083652	0.494577	-0.196992
	H110	H	-0.077368	0.430846	-0.041279
	H111	H	0.032015	0.521271	0.265556
	H112	H	0.057740	0.539335	-0.027794
	C113	C	-0.036960	0.382697	0.567220
	H114	H	-0.066312	0.353263	0.549571
	C115	C	0.009127	0.607402	-0.578119
	H116	H	0.043961	0.629421	-0.581843
	C117	C	0.018593	1.066635	0.441790
	C118	C	-0.022496	1.041844	0.358344
	C119	C	-0.023428	1.018444	0.189098
	C120	C	0.016583	1.018745	0.091997
	C121	C	0.057684	1.043798	0.177456
	C122	C	0.058711	1.067095	0.347216
	C123	C	0.015308	0.993932	-0.091861
	C124	C	0.054516	0.984644	-0.166037
	C125	C	0.053105	0.961812	-0.337406
	C126	C	0.012154	0.946192	-0.442805
	C127	C	-0.027208	0.954744	-0.369406
	C128	C	-0.025522	0.978425	-0.200553
	H129	H	0.083776	0.954840	-0.390071
	H130	H	0.090992	1.085947	0.408831
	H131	H	-0.059303	0.943395	-0.448867
	H132	H	-0.053919	1.041408	0.428387
	H133	H	0.086741	0.994121	-0.086606
	H134	H	0.089618	1.045791	0.109481
	H135	H	-0.056189	0.999394	0.133679
	H136	H	-0.056572	0.986015	-0.156575
	C137	C	0.019612	1.092122	0.619635
	H138	H	0.052679	1.115165	0.657301
	C139	C	0.009502	0.920359	-0.620510
	H140	H	-0.025275	0.903155	-0.668853
	C141	C	0.481417	0.728318	0.253207
	C142	C	0.364525	0.709646	0.635077
	C143	C	0.486759	0.847393	-0.152932
	C144	C	0.484532	0.616478	-0.131482
	C145	C	0.602730	0.760263	0.655969
	C146	C	0.376744	0.748278	0.511881
	C147	C	0.469411	0.802256	-0.208175
	C148	C	0.523177	0.637227	-0.019772
	C149	C	0.559459	0.736696	0.716171
	C150	C	0.411669	0.752840	0.381626
	C151	C	0.466968	0.765332	-0.079285
	C152	C	0.521443	0.670246	0.112659
	C153	C	0.521991	0.725809	0.588535
	C154	C	0.436398	0.719691	0.369589
	C155	C	0.483732	0.770700	0.110689
	C156	C	0.481648	0.684747	0.137744
	C157	C	0.524618	0.739657	0.394333
	C158	C	0.418786	0.678304	0.469782
	C159	C	0.501857	0.815999	0.165808
	C160	C	0.441920	0.658901	0.047091
	C161	C	0.567958	0.764276	0.334566
	C162	C	0.383207	0.673206	0.596931
	C163	C	0.503908	0.853249	0.037333
	C164	C	0.443230	0.624935	-0.080885
	C165	C	0.605934	0.774654	0.461761
	H166	H	0.359213	0.775189	0.517615
	H167	H	0.459122	0.795264	-0.356579
	H168	H	0.554947	0.627890	-0.036577
	H169	H	0.554555	0.727994	0.867340
	H170	H	0.420492	0.783469	0.291357
	H171	H	0.451766	0.731601	-0.130072
	H172	H	0.552126	0.685724	0.194478
	H173	H	0.490077	0.706327	0.644223
	H174	H	0.434516	0.650289	0.453529
	H175	H	0.514684	0.822273	0.312851
	H176	H	0.409648	0.666700	0.071847
	H177	H	0.572013	0.775756	0.184882
	H178	H	0.370296	0.641228	0.674716
	H179	H	0.518988	0.887606	0.084099
	H180	H	0.412246	0.605372	-0.149716
	H181	H	0.638644	0.794164	0.411254
	N182	N	0.335436	0.705465	0.791487
	N183	N	0.489985	0.884450	-0.286190
	N184	N	0.484491	0.588208	-0.287113
	N185	N	0.639706	0.771086	0.791059
	C186	C	-0.019286	0.229661	0.255419
	C187	C	-0.016006	0.116338	-0.122995
	C188	C	0.101131	0.264388	0.661891
	C189	C	-0.138025	0.209175	0.629992
	C190	C	-0.011548	0.348305	-0.155561
	C191	C	0.022951	0.138683	-0.016769
	C192	C	0.058122	0.239700	0.720747
	C193	C	-0.124623	0.248620	0.512172
	C194	C	-0.031511	0.303295	-0.206562
	C195	C	0.021138	0.171958	0.114275
	C196	C	0.020911	0.228043	0.592162
	C197	C	-0.089296	0.253636	0.383595
	C198	C	-0.034644	0.266564	-0.076059
	C199	C	-0.018767	0.186256	0.139266
	C200	C	0.023802	0.241137	0.397143
	C201	C	-0.064402	0.220650	0.371226
	C202	C	-0.017182	0.272024	0.112913
	C203	C	-0.058471	0.160110	0.049532
	C204	C	0.067208	0.265608	0.337528
	C205	C	-0.081658	0.179225	0.471706
	C206	C	0.001812	0.317316	0.166124
	C207	C	-0.057163	0.125759	-0.076448
	C208	C	0.104948	0.276734	0.465639
	C209	C	-0.117731	0.173573	0.596650
	C210	C	0.004675	0.354385	0.035921
	H211	H	0.054923	0.129789	-0.034166
	H212	H	0.053001	0.231336	0.872061
	H213	H	-0.142088	0.275572	0.518485
	H214	H	-0.042567	0.295989	-0.353929
	H215	H	0.051929	0.187962	0.194226
	H216	H	-0.010992	0.208531	0.647924
	H217	H	-0.080129	0.284593	0.295499
	H218	H	-0.050933	0.232894	-0.124978
	H219	H	-0.090780	0.167891	0.073692
	H220	H	0.071497	0.276419	0.187200
	H221	H	-0.065347	0.151571	0.456898
	H222	H	0.014758	0.323744	0.312918
	H223	H	-0.088136	0.106251	-0.145580
	H224	H	0.137825	0.295692	0.414720
	H225	H	-0.130136	0.141616	0.675321
	H226	H	0.020179	0.388748	0.081618
	N227	N	-0.015899	0.089240	-0.282596
	N228	N	0.138443	0.274031	0.795588
	N229	N	-0.166143	0.205096	0.789812
	N230	N	-0.009040	0.385442	-0.287716
	C231	C	0.512531	0.444820	0.553136
	C232	C	0.553414	0.460048	0.659457
	C233	C	0.554821	0.482779	0.831102
	C234	C	0.515655	0.492227	0.904958
	C235	C	0.474846	0.476869	0.795989
	C236	C	0.473164	0.453304	0.626828
	C237	C	0.516945	0.517014	1.088885
	C238	C	0.476937	0.516777	1.185873
	C239	C	0.477882	0.540225	1.354995
	C240	C	0.518988	0.564936	1.438605
	C241	C	0.559082	0.565522	1.343596
	C242	C	0.558047	0.542150	1.174032
	H243	H	0.446456	0.539892	1.424809
	H244	H	0.441082	0.442088	0.547132
	H245	H	0.591354	0.584502	1.404825
	H246	H	0.584053	0.452976	0.606941
	H247	H	0.444166	0.497765	1.130392
	H248	H	0.443812	0.484498	0.839958
	H249	H	0.586996	0.492060	0.911026
	H250	H	0.589958	0.544189	1.105776
	C251	C	0.509855	0.419186	0.374811
	H252	H	0.475038	0.402549	0.325017
	C253	C	0.519931	0.591050	1.614557
	H254	H	0.552814	0.614693	1.650063
	C255	C	0.498551	1.071235	-0.418593
	C256	C	0.455428	1.042861	-0.381410
	C257	C	0.448496	1.013228	-0.220381
	C258	C	0.484251	1.010301	-0.088283
	C259	C	0.527516	1.038549	-0.128392
	C260	C	0.534456	1.068368	-0.288272
	C261	C	0.477169	0.978637	0.085272
	C262	C	0.505365	0.987490	0.252842
	C263	C	0.500132	0.957035	0.411061
	C264	C	0.465948	0.916279	0.410991
	C265	C	0.436944	0.907665	0.246397
	C266	C	0.442496	0.937953	0.087916
	H267	H	0.522577	0.964462	0.537630
	H268	H	0.568173	1.089949	-0.313261
	H269	H	0.410582	0.876090	0.241003
	H270	H	0.427273	1.044756	-0.480258
	H271	H	0.531535	1.019098	0.260934
	H272	H	0.556383	1.036578	-0.034316
	H273	H	0.414376	0.992788	-0.194478
	H274	H	0.420712	0.928962	-0.039335
	C275	C	0.506320	1.104958	-0.580812
	H276	H	0.541145	1.126933	-0.586428
	C277	C	0.461775	0.881719	0.569680
	H278	H	0.432337	0.852287	0.553599
	C279	C	0.332668	0.282748	0.910376
	C280	C	0.291492	0.249156	0.912204
	C281	C	0.260828	0.244143	0.754728
	C282	C	0.269881	0.271961	0.586200
	C283	C	0.310975	0.306078	0.587134
	C284	C	0.341473	0.311422	0.744876
	C285	C	0.238021	0.265018	0.413283
	C286	C	0.235434	0.300744	0.280477
	C287	C	0.205654	0.293929	0.119903
	C288	C	0.176804	0.250957	0.083894
	C289	C	0.179320	0.215081	0.214973
	C290	C	0.209271	0.221904	0.374439
	H291	H	0.204030	0.322060	0.020474
	H292	H	0.373365	0.337305	0.738040
	H293	H	0.157350	0.181487	0.190944
	H294	H	0.283912	0.226979	1.039478
	H295	H	0.256281	0.334755	0.305467
	H296	H	0.320112	0.327529	0.459074
	H297	H	0.228914	0.218444	0.764068
	H298	H	0.210947	0.193062	0.469209
	C299	C	0.367512	0.286501	1.067806
	H300	H	0.397243	0.315539	1.050064
	C301	C	0.142955	0.243343	-0.077868
	H302	H	0.120860	0.208567	-0.083457
	C303	C	0.683675	0.230051	0.940847
	C304	C	0.708051	0.271272	0.856980
	C305	C	0.731411	0.272388	0.687535
	C306	C	0.731412	0.232445	0.590408
	C307	C	0.706508	0.191235	0.675557
	C308	C	0.683251	0.190025	0.845515
	C309	C	0.756219	0.233895	0.406449
	C310	C	0.765707	0.194791	0.332033
	C311	C	0.788468	0.196336	0.160423
	C312	C	0.803685	0.237302	0.054639
	C313	C	0.795164	0.276608	0.128864
	C314	C	0.771581	0.274792	0.298028
	H315	H	0.795568	0.165737	0.107508
	H316	H	0.664524	0.157662	0.906875
	H317	H	0.806376	0.308756	0.049619
	H318	H	0.708262	0.302649	0.927038
	H319	H	0.756434	0.162547	0.411458
	H320	H	0.704609	0.159355	0.607179
	H321	H	0.750184	0.305251	0.632001
	H322	H	0.763960	0.305801	0.342437
	C323	C	0.658041	0.228879	1.118367
	H324	H	0.635103	0.195734	1.155759
	C325	C	0.829379	0.240106	-0.123546
	H326	H	0.845766	0.274966	-0.173658
	C327	C	0.520395	0.267680	0.754278
	C328	C	0.401769	0.260455	0.343803
	C329	C	0.633646	0.264388	0.375801
	C330	C	0.485359	0.147156	1.160023
	C331	C	0.540883	0.386444	1.129179
	C332	C	0.446816	0.279908	0.292121
	C333	C	0.611232	0.225386	0.481590
	C334	C	0.510318	0.190071	1.218977
	C335	C	0.501504	0.373105	1.010954
	C336	C	0.483559	0.282858	0.422394
	C337	C	0.577978	0.227192	0.612688
	C338	C	0.522090	0.227307	1.090581
	C339	C	0.496498	0.337766	0.882371
	C340	C	0.478062	0.265672	0.611737
	C341	C	0.563777	0.267142	0.638175
	C342	C	0.508842	0.224542	0.895692
	C343	C	0.529423	0.312791	0.870337
	C344	C	0.432755	0.247068	0.665431
	C345	C	0.589973	0.306870	0.548824
	C346	C	0.484142	0.181214	0.835921
	C347	C	0.570802	0.329993	0.971212
	C348	C	0.395672	0.244435	0.535520
	C349	C	0.624307	0.305564	0.422829
	C350	C	0.472897	0.143445	0.963839
	C351	C	0.576444	0.366074	1.096224
	H352	H	0.454099	0.290721	0.144489
	H353	H	0.620042	0.193379	0.463802
	H354	H	0.518807	0.195096	1.370266
	H355	H	0.474605	0.390645	1.016898
	H356	H	0.517258	0.298806	0.373051
	H357	H	0.561895	0.196365	0.692244
	H358	H	0.541815	0.259131	1.146377
	H359	H	0.465596	0.328689	0.793904
	H360	H	0.426335	0.234282	0.812421
	H361	H	0.582234	0.339195	0.573251
	H362	H	0.473248	0.177012	0.685633
	H363	H	0.598432	0.313648	0.956581
	H364	H	0.361284	0.229300	0.581671
	H365	H	0.643865	0.336560	0.354046
	H366	H	0.453756	0.110634	0.912813
	H367	H	0.608364	0.378439	1.175190
	N368	N	0.364624	0.258324	0.212025
	N369	N	0.660759	0.264351	0.216262
	N370	N	0.475570	0.109829	1.293604
	N371	N	0.544911	0.414622	1.288849
