data_Molecule from CHK

_cell_length_a		38.905152
_cell_length_b		39.381963
_cell_length_c		16.838743
_cell_angle_alpha	91.343137
_cell_angle_beta	87.191994
_cell_angle_gamma	82.160758
_symmetry_space_group_name_H-M	'P 1'
_symmetry_Int_Tables_number		1

loop_
	_symmetry_equiv_pos_as_xyz
	x,y,z

loop_
	_atom_site_label
	_atom_site_type_symbol
	_atom_site_fract_x
	_atom_site_fract_y
	_atom_site_fract_z
	C0	C	-0.005840	0.741701	0.126478
	C1	C	-0.010171	0.647745	0.265748
	C2	C	-0.000162	0.833327	0.282730
	C3	C	-0.101543	0.753754	-0.010285
	C4	C	0.088772	0.731525	-0.035747
	C5	C	0.000538	0.677096	0.300140
	C6	C	-0.030912	0.828802	0.245856
	C7	C	-0.068938	0.756712	-0.047162
	C8	C	0.077096	0.702601	-0.002523
	C9	C	0.002031	0.706753	0.256871
	C10	C	-0.032977	0.799982	0.197181
	C11	C	-0.038817	0.753323	-0.004398
	C12	C	0.047372	0.705472	0.048546
	C13	C	-0.007010	0.708778	0.177363
	C14	C	-0.004639	0.774267	0.181796
	C15	C	-0.039322	0.746412	0.076870
	C16	C	0.027753	0.737283	0.069098
	C17	C	-0.018677	0.679591	0.144343
	C18	C	0.026310	0.779512	0.216728
	C19	C	-0.071841	0.742765	0.112965
	C20	C	0.039673	0.766137	0.035596
	C21	C	-0.020546	0.649982	0.187347
	C22	C	0.028584	0.808191	0.265404
	C23	C	-0.102017	0.746139	0.070717
	C24	C	0.069477	0.763520	-0.014973
	H25	H	0.007167	0.676852	0.361917
	H26	H	-0.053647	0.847954	0.253631
	H27	H	-0.066423	0.761064	-0.110256
	H28	H	0.091771	0.677629	-0.017201
	H29	H	0.009905	0.728805	0.286689
	H30	H	-0.057225	0.797985	0.169863
	H31	H	-0.014338	0.755414	-0.035936
	H32	H	0.039629	0.682358	0.072943
	H33	H	-0.026470	0.680158	0.083399
	H34	H	0.049127	0.760632	0.205049
	H35	H	-0.073336	0.736928	0.175542
	H36	H	0.025071	0.791203	0.049531
	H37	H	-0.029898	0.627987	0.160187
	H38	H	0.052979	0.811445	0.291153
	H39	H	-0.126658	0.742820	0.100398
	H40	H	0.077507	0.786479	-0.039979
	N41	N	-0.012993	0.617994	0.308689
	N42	N	0.004259	0.862020	0.330112
	N43	N	-0.132583	0.755214	-0.049762
	N44	N	0.119570	0.728140	-0.084299
	C45	C	0.332114	0.737360	0.627438
	C46	C	0.318374	0.767163	0.671674
	C47	C	0.288204	0.768364	0.720164
	C48	C	0.270287	0.739781	0.727285
	C49	C	0.284338	0.709901	0.683098
	C50	C	0.314454	0.708706	0.634306
	C51	C	0.237863	0.741211	0.779307
	C52	C	0.211100	0.722210	0.760355
	C53	C	0.180784	0.723799	0.808569
	C54	C	0.175642	0.744543	0.878129
	C55	C	0.202207	0.763582	0.897438
	C56	C	0.232563	0.761860	0.849357
	H57	H	0.160422	0.709059	0.792540
	H58	H	0.324694	0.685282	0.601188
	H59	H	0.198936	0.779687	0.951096
	H60	H	0.331640	0.789590	0.666927
	H61	H	0.213717	0.706559	0.706061
	H62	H	0.271814	0.687054	0.688388
	H63	H	0.277931	0.792166	0.751666
	H64	H	0.252877	0.776257	0.867206
	C65	C	0.364029	0.736248	0.575658
	H66	H	0.372157	0.712361	0.540650
	C67	C	0.143321	0.746751	0.928808
	H68	H	0.140979	0.764990	0.979853
	C69	C	0.673220	0.754741	0.638733
	C70	C	0.690362	0.783710	0.631307
	C71	C	0.720363	0.786567	0.671331
	C72	C	0.734635	0.760639	0.720897
	C73	C	0.717199	0.731756	0.728478
	C74	C	0.687300	0.728815	0.688256
	C75	C	0.767153	0.763165	0.762778
	C76	C	0.771676	0.750579	0.839587
	C77	C	0.802349	0.752102	0.877866
	C78	C	0.830077	0.766194	0.841155
	C79	C	0.825569	0.779196	0.764904
	C80	C	0.794828	0.777765	0.726756
	H81	H	0.805287	0.742173	0.937047
	H82	H	0.674610	0.706116	0.694779
	H83	H	0.846596	0.790247	0.735301
	H84	H	0.679767	0.804000	0.593378
	H85	H	0.750589	0.739966	0.870113
	H86	H	0.727845	0.710971	0.764949
	H87	H	0.732675	0.809514	0.665312
	H88	H	0.792432	0.787255	0.667105
	C89	C	0.641927	0.751049	0.594902
	H90	H	0.630975	0.727038	0.603669
	C91	C	0.863001	0.766965	0.880973
	H92	H	0.883138	0.778238	0.846897
	C93	C	-0.002183	0.423578	0.625968
	C94	C	0.025509	0.424580	0.569834
	C95	C	0.027940	0.453447	0.524880
	C96	C	0.002586	0.482544	0.533296
	C97	C	-0.025221	0.481362	0.589298
	C98	C	-0.027441	0.452664	0.634966
	C99	C	0.005132	0.513475	0.485205
	C100	C	-0.024101	0.530967	0.450651
	C101	C	-0.021719	0.559844	0.405723
	C102	C	0.009899	0.572902	0.394152
	C103	C	0.039146	0.555583	0.428737
	C104	C	0.036835	0.526452	0.472844
	H105	H	-0.044520	0.572839	0.379064
	H106	H	-0.049019	0.452537	0.678124
	H107	H	0.063868	0.565147	0.420494
	H108	H	0.045236	0.402309	0.562199
	H109	H	-0.048776	0.521227	0.457916
	H110	H	-0.044836	0.503663	0.597954
	H111	H	0.049395	0.453369	0.481286
	H112	H	0.059692	0.513759	0.499779
	C113	C	-0.004477	0.393236	0.674784
	H114	H	-0.025530	0.395742	0.721403
	C115	C	0.012407	0.603656	0.346890
	H116	H	0.037533	0.613501	0.345557
	C117	C	0.014433	1.062415	0.640000
	C118	C	-0.013550	1.063452	0.590242
	C119	C	-0.018971	1.034751	0.545259
	C120	C	0.003313	1.003551	0.547740
	C121	C	0.031389	1.002692	0.597571
	C122	C	0.036797	1.031377	0.642710
	C123	C	-0.002725	0.972714	0.499960
	C124	C	0.025028	0.949442	0.465973
	C125	C	0.019309	0.920729	0.421361
	C126	C	-0.014451	0.913760	0.408812
	C127	C	-0.042264	0.936860	0.442635
	C128	C	-0.036519	0.965600	0.487086
	H129	H	0.041106	0.903252	0.395248
	H130	H	0.058519	1.029855	0.680980
	H131	H	-0.068607	0.932031	0.433953
	H132	H	-0.031036	1.087262	0.587232
	H133	H	0.051438	0.954395	0.473152
	H134	H	0.048712	0.978901	0.602198
	H135	H	-0.040442	1.036696	0.506239
	H136	H	-0.058539	0.982561	0.513801
	C137	C	0.019823	1.092752	0.688821
	H138	H	0.042389	1.089153	0.725773
	C139	C	-0.020644	0.883488	0.360825
	H140	H	-0.048036	0.880542	0.354800
	C141	C	0.507164	0.758730	0.365683
	C142	C	0.411446	0.760809	0.522213
	C143	C	0.497448	0.845261	0.200217
	C144	C	0.518914	0.659168	0.231186
	C145	C	0.599116	0.769501	0.506292
	C146	C	0.413654	0.747967	0.443407
	C147	C	0.529770	0.826813	0.215637
	C148	C	0.513541	0.661338	0.314140
	C149	C	0.573893	0.797432	0.492816
	C150	C	0.443957	0.747634	0.395294
	C151	C	0.532240	0.799570	0.267507
	C152	C	0.509859	0.692866	0.355454
	C153	C	0.545160	0.793559	0.448644
	C154	C	0.473731	0.759675	0.422801
	C155	C	0.502922	0.789684	0.307889
	C156	C	0.511622	0.723784	0.316566
	C157	C	0.540149	0.761828	0.414571
	C158	C	0.471622	0.771397	0.502359
	C159	C	0.470817	0.808679	0.293174
	C160	C	0.516454	0.721422	0.233449
	C161	C	0.566443	0.734440	0.424830
	C162	C	0.441298	0.772130	0.550708
	C163	C	0.468074	0.835712	0.240597
	C164	C	0.519796	0.690009	0.191580
	C165	C	0.595196	0.738057	0.469223
	H166	H	0.391182	0.738971	0.418854
	H167	H	0.553038	0.833380	0.185134
	H168	H	0.512044	0.637901	0.345863
	H169	H	0.576918	0.822301	0.518413
	H170	H	0.444637	0.737864	0.334429
	H171	H	0.557532	0.785385	0.276986
	H172	H	0.505292	0.693789	0.419557
	H173	H	0.526003	0.815687	0.439995
	H174	H	0.493925	0.780087	0.527976
	H175	H	0.447367	0.802601	0.323380
	H176	H	0.517384	0.744473	0.200195
	H177	H	0.565083	0.709732	0.396776
	H178	H	0.440462	0.781494	0.611947
	H179	H	0.442883	0.849989	0.230538
	H180	H	0.523785	0.689237	0.127359
	H181	H	0.615156	0.716230	0.473610
	N182	N	0.381640	0.761363	0.572947
	N183	N	0.494222	0.873398	0.149970
	N184	N	0.521174	0.627387	0.190080
	N185	N	0.628109	0.774221	0.549867
	C186	C	0.004716	0.248852	0.866739
	C187	C	0.002421	0.150601	0.732705
	C188	C	0.096760	0.247911	1.013611
	C189	C	-0.094956	0.258002	1.011396
	C190	C	0.014386	0.337301	0.712597
	C191	C	0.030784	0.155495	0.778203
	C192	C	0.063262	0.248688	1.049478
	C193	C	-0.086734	0.285065	0.964621
	C194	C	0.012889	0.304623	0.679291
	C195	C	0.031926	0.186317	0.820307
	C196	C	0.034109	0.249046	1.003990
	C197	C	-0.055644	0.282622	0.918353
	C198	C	0.009639	0.276562	0.726977
	C199	C	0.005464	0.214187	0.817955
	C200	C	0.036718	0.247731	0.920632
	C201	C	-0.030516	0.253514	0.918389
	C202	C	0.007213	0.279742	0.810252
	C203	C	-0.022673	0.209217	0.772127
	C204	C	0.070212	0.246951	0.885213
	C205	C	-0.038812	0.226605	0.965713
	C206	C	0.009453	0.312410	0.843078
	C207	C	-0.024007	0.178561	0.729964
	C208	C	0.099432	0.246538	0.930165
	C209	C	-0.069871	0.228776	1.011845
	C210	C	0.012389	0.340638	0.795902
	H211	H	0.052356	0.135260	0.782199
	H212	H	0.059402	0.248980	1.113570
	H213	H	-0.105559	0.308040	0.963795
	H214	H	0.014607	0.301413	0.615026
	H215	H	0.053817	0.188322	0.856499
	H216	H	0.008826	0.250758	1.034668
	H217	H	-0.051350	0.303756	0.881017
	H218	H	0.009552	0.251722	0.698275
	H219	H	-0.043999	0.229942	0.770085
	H220	H	0.073239	0.246749	0.820857
	H221	H	-0.020229	0.203444	0.966152
	H222	H	0.009107	0.315488	0.907279
	H223	H	-0.046112	0.175708	0.694797
	H224	H	0.124974	0.245676	0.900720
	H225	H	-0.074289	0.207586	1.049095
	H226	H	0.014279	0.365339	0.823844
	N227	N	-0.000738	0.120859	0.687914
	N228	N	0.127346	0.246496	1.054805
	N229	N	-0.126086	0.262005	1.058651
	N230	N	0.016509	0.365387	0.663473
	C231	C	0.509748	0.430818	0.868834
	C232	C	0.478838	0.446309	0.908649
	C233	C	0.477401	0.477296	0.950911
	C234	C	0.506931	0.494026	0.956238
	C235	C	0.537903	0.478348	0.916621
	C236	C	0.539232	0.447593	0.873379
	C237	C	0.505383	0.527091	1.001933
	C238	C	0.531274	0.532815	1.054088
	C239	C	0.529575	0.563576	1.097434
	C240	C	0.502201	0.590252	1.089708
	C241	C	0.476395	0.584718	1.037317
	C242	C	0.477847	0.553769	0.994849
	H243	H	0.549628	0.567414	1.137939
	H244	H	0.563378	0.436132	0.843000
	H245	H	0.454970	0.604930	1.030460
	H246	H	0.455841	0.433646	0.905750
	H247	H	0.552497	0.512474	1.061750
	H248	H	0.560913	0.491000	0.918850
	H249	H	0.453294	0.488504	0.981894
	H250	H	0.457794	0.550166	0.954195
	C251	C	0.511098	0.398162	0.823173
	H252	H	0.535347	0.389337	0.787995
	C253	C	0.500350	0.622937	1.135442
	H254	H	0.479480	0.643274	1.121229
	C255	C	0.499008	1.073226	-0.144194
	C256	C	0.494223	1.077434	-0.061221
	C257	C	0.496279	1.049288	-0.012407
	C258	C	0.502815	1.015584	-0.044320
	C259	C	0.507339	1.011462	-0.127517
	C260	C	0.505738	1.039619	-0.176317
	C261	C	0.505067	0.985471	0.008028
	C262	C	0.488863	0.956679	-0.010297
	C263	C	0.490815	0.928682	0.039001
	C264	C	0.509485	0.927944	0.108312
	C265	C	0.525835	0.956583	0.126667
	C266	C	0.523492	0.984761	0.077899
	H267	H	0.477911	0.906808	0.024215
	H268	H	0.509582	1.035738	-0.240237
	H269	H	0.540362	0.956616	0.179956
	H270	H	0.488978	1.103244	-0.035508
	H271	H	0.473972	0.956738	-0.063049
	H272	H	0.512918	0.985745	-0.153577
	H273	H	0.492095	1.053264	0.051437
	H274	H	0.536653	1.006430	0.092814
	C275	C	0.497588	1.103123	-0.195790
	H276	H	0.504545	1.097621	-0.259279
	C277	C	0.511694	0.898248	0.160591
	H278	H	0.528725	0.898904	0.210646
	C279	C	0.322962	0.238387	0.364925
	C280	C	0.295827	0.264945	0.384791
	C281	C	0.264631	0.267471	0.346852
	C282	C	0.259053	0.243623	0.286988
	C283	C	0.286370	0.217075	0.267240
	C284	C	0.317522	0.214445	0.305387
	C285	C	0.225582	0.246235	0.246437
	C286	C	0.224645	0.237932	0.164953
	C287	C	0.193426	0.240330	0.127149
	C288	C	0.161567	0.250994	0.169015
	C289	C	0.162325	0.259389	0.250317
	C290	C	0.193575	0.257102	0.288018
	H291	H	0.193337	0.233968	0.064152
	H292	H	0.338023	0.193596	0.289178
	H293	H	0.138065	0.267692	0.284021
	H294	H	0.299608	0.283695	0.430609
	H295	H	0.248830	0.230218	0.130513
	H296	H	0.282704	0.197851	0.222489
	H297	H	0.244457	0.288675	0.362606
	H298	H	0.193275	0.263116	0.351210
	C299	C	0.355937	0.235403	0.405880
	H300	H	0.375205	0.213405	0.386652
	C301	C	0.128398	0.253562	0.128893
	H302	H	0.105030	0.262228	0.167011
	C303	C	0.670365	0.260225	0.384750
	C304	C	0.673756	0.238514	0.316750
	C305	C	0.703633	0.234908	0.266618
	C306	C	0.731558	0.252915	0.281859
	C307	C	0.727983	0.274702	0.350032
	C308	C	0.698176	0.278212	0.400385
	C309	C	0.763705	0.248907	0.228491
	C310	C	0.781637	0.276827	0.211914
	C311	C	0.811747	0.273014	0.162527
	C312	C	0.825519	0.241050	0.127597
	C313	C	0.807665	0.213112	0.143647
	C314	C	0.777470	0.216983	0.192756
	H315	H	0.825114	0.294911	0.150354
	H316	H	0.696258	0.295038	0.452737
	H317	H	0.817775	0.188149	0.117332
	H318	H	0.652472	0.224481	0.303704
	H319	H	0.771379	0.301986	0.236909
	H320	H	0.749293	0.288437	0.364441
	H321	H	0.705143	0.218412	0.213789
	H322	H	0.764638	0.194797	0.205307
	C323	C	0.638870	0.263763	0.438619
	H324	H	0.638903	0.281126	0.490594
	C325	C	0.857631	0.236839	0.075708
	H326	H	0.866488	0.210722	0.052019
	C327	C	0.487895	0.254234	0.634746
	C328	C	0.391877	0.255213	0.501489
	C329	C	0.583274	0.250392	0.476491
	C330	C	0.488657	0.161933	0.781542
	C331	C	0.487248	0.350140	0.779394
	C332	C	0.416432	0.225696	0.505232
	C333	C	0.583603	0.255318	0.559324
	C334	C	0.459648	0.187255	0.781194
	C335	C	0.493686	0.348794	0.696603
	C336	C	0.446407	0.226036	0.547424
	C337	C	0.553271	0.256454	0.607717
	C338	C	0.459792	0.215870	0.733905
	C339	C	0.493732	0.318340	0.652490
	C340	C	0.454084	0.255689	0.586728
	C341	C	0.521235	0.251948	0.577056
	C342	C	0.489216	0.221543	0.687098
	C343	C	0.487031	0.287809	0.687915
	C344	C	0.429453	0.285005	0.583045
	C345	C	0.521180	0.246643	0.494494
	C346	C	0.518143	0.196074	0.687844
	C347	C	0.480659	0.289454	0.770680
	C348	C	0.399337	0.284838	0.541279
	C349	C	0.551432	0.245414	0.445680
	C350	C	0.518079	0.167137	0.734234
	C351	C	0.480171	0.319917	0.815164
	H352	H	0.411915	0.201742	0.477570
	H353	H	0.607701	0.257994	0.586845
	H354	H	0.436642	0.183891	0.817525
	H355	H	0.498339	0.371920	0.666638
	H356	H	0.464488	0.202644	0.550564
	H357	H	0.554216	0.260823	0.671352
	H358	H	0.436552	0.234483	0.733098
	H359	H	0.498896	0.318080	0.588603
	H360	H	0.433388	0.308437	0.613910
	H361	H	0.497155	0.243749	0.467082
	H362	H	0.541239	0.198478	0.651201
	H363	H	0.476209	0.266684	0.801952
	H364	H	0.380855	0.308024	0.539323
	H365	H	0.550580	0.241056	0.382013
	H366	H	0.541281	0.148475	0.734551
	H367	H	0.474711	0.320483	0.878991
	N368	N	0.361524	0.257223	0.459266
	N369	N	0.613061	0.248006	0.425035
	N370	N	0.488544	0.133817	0.831353
	N371	N	0.485659	0.380717	0.824918
