data_Molecule from CHK

_cell_length_a		37.878830
_cell_length_b		39.467501
_cell_length_c		17.113884
_cell_angle_alpha	94.215190
_cell_angle_beta	85.452197
_cell_angle_gamma	77.295873
_symmetry_space_group_name_H-M	'P 1'
_symmetry_Int_Tables_number		1

loop_
	_symmetry_equiv_pos_as_xyz
	x,y,z

loop_
	_atom_site_label
	_atom_site_type_symbol
	_atom_site_fract_x
	_atom_site_fract_y
	_atom_site_fract_z
	C0	C	-0.016503	0.736548	0.142610
	C1	C	-0.016717	0.643522	0.273275
	C2	C	-0.024049	0.832944	0.299529
	C3	C	-0.111049	0.740938	0.002954
	C4	C	0.085146	0.728227	-0.012345
	C5	C	-0.022577	0.676860	0.313623
	C6	C	-0.050416	0.831034	0.247392
	C7	C	-0.075497	0.734109	-0.034263
	C8	C	0.082104	0.702485	0.038351
	C9	C	-0.022226	0.706329	0.273281
	C10	C	-0.048527	0.800811	0.197827
	C11	C	-0.045618	0.732978	0.009116
	C12	C	0.050352	0.704738	0.087835
	C13	C	-0.016155	0.704145	0.190956
	C14	C	-0.020348	0.771051	0.197851
	C15	C	-0.049491	0.738246	0.091585
	C16	C	0.020116	0.732694	0.089057
	C17	C	-0.012427	0.671016	0.151032
	C18	C	0.006672	0.773763	0.248023
	C19	C	-0.084890	0.743038	0.128396
	C20	C	0.024071	0.759119	0.040731
	C21	C	-0.012543	0.641436	0.190857
	C22	C	0.004976	0.803834	0.297788
	C23	C	-0.114932	0.744486	0.085469
	C24	C	0.055644	0.757049	-0.008945
	H25	H	-0.028081	0.679789	0.377166
	H26	H	-0.072644	0.853572	0.246409
	H27	H	-0.071080	0.728987	-0.097772
	H28	H	0.104985	0.680440	0.038146
	H29	H	-0.027705	0.731564	0.306795
	H30	H	-0.069190	0.800814	0.157697
	H31	H	-0.018717	0.726834	-0.022233
	H32	H	0.049460	0.684448	0.126635
	H33	H	-0.009532	0.668576	0.087225
	H34	H	0.029501	0.751655	0.247498
	H35	H	-0.088717	0.745414	0.192167
	H36	H	0.001622	0.781643	0.042209
	H37	H	-0.009584	0.616201	0.158231
	H38	H	0.026202	0.805002	0.336143
	H39	H	-0.141949	0.748180	0.115696
	H40	H	0.057483	0.777700	-0.046398
	N41	N	-0.017838	0.613473	0.311695
	N42	N	-0.025201	0.863787	0.347396
	N43	N	-0.141566	0.741304	-0.038829
	N44	N	0.117337	0.726134	-0.061146
	C45	C	0.330144	0.748152	0.642702
	C46	C	0.306914	0.779335	0.676935
	C47	C	0.276203	0.779124	0.727044
	C48	C	0.267152	0.747724	0.745347
	C49	C	0.290600	0.716536	0.711012
	C50	C	0.321384	0.716717	0.661035
	C51	C	0.234064	0.747568	0.798662
	C52	C	0.213162	0.722711	0.785417
	C53	C	0.182015	0.722849	0.834471
	C54	C	0.170305	0.747752	0.899435
	C55	C	0.191124	0.772542	0.913200
	C56	C	0.222223	0.772437	0.863977
	H57	H	0.166125	0.703615	0.822754
	H58	H	0.339044	0.692279	0.635690
	H59	H	0.182687	0.791992	0.963153
	H60	H	0.313271	0.803864	0.663303
	H61	H	0.220981	0.703562	0.734793
	H62	H	0.284895	0.691837	0.725150
	H63	H	0.258431	0.803711	0.751070
	H64	H	0.238107	0.791522	0.876946
	C65	C	0.362772	0.748390	0.589747
	H66	H	0.379607	0.722827	0.565684
	C67	C	0.136845	0.748359	0.950483
	H68	H	0.129411	0.768990	0.999541
	C69	C	0.670453	0.752702	0.628563
	C70	C	0.687515	0.780839	0.628216
	C71	C	0.716806	0.781870	0.671879
	C72	C	0.730596	0.754767	0.717862
	C73	C	0.713430	0.726561	0.717647
	C74	C	0.684092	0.725543	0.674196
	C75	C	0.762146	0.755636	0.764444
	C76	C	0.765071	0.740673	0.836453
	C77	C	0.794679	0.741028	0.879458
	C78	C	0.822839	0.756461	0.852763
	C79	C	0.819952	0.771751	0.781375
	C80	C	0.790369	0.771287	0.738286
	H81	H	0.796346	0.729311	0.934817
	H82	H	0.671546	0.703383	0.675019
	H83	H	0.841392	0.783797	0.759424
	H84	H	0.677274	0.802064	0.593318
	H85	H	0.743477	0.729175	0.859871
	H86	H	0.723806	0.704748	0.750722
	H87	H	0.728737	0.804420	0.671617
	H88	H	0.789481	0.782512	0.682369
	C89	C	0.639444	0.751366	0.582318
	H90	H	0.627105	0.728858	0.588786
	C91	C	0.854400	0.756591	0.898075
	H92	H	0.874380	0.770514	0.874298
	C93	C	-0.004708	0.420548	0.610434
	C94	C	0.026091	0.434863	0.606749
	C95	C	0.026838	0.464565	0.568148
	C96	C	-0.003204	0.481545	0.531425
	C97	C	-0.034022	0.467064	0.535404
	C98	C	-0.034788	0.437331	0.573931
	C99	C	-0.002461	0.513538	0.490400
	C100	C	-0.021049	0.520557	0.423338
	C101	C	-0.020401	0.550399	0.385199
	C102	C	-0.001140	0.574774	0.412180
	C103	C	0.017524	0.567929	0.478969
	C104	C	0.016808	0.538097	0.517142
	H105	H	-0.034810	0.555172	0.333363
	H106	H	-0.059002	0.426913	0.576354
	H107	H	0.032544	0.586395	0.501118
	H108	H	0.049613	0.422204	0.634563
	H109	H	-0.035551	0.501954	0.399678
	H110	H	-0.058012	0.479826	0.509355
	H111	H	0.051422	0.474377	0.565030
	H112	H	0.030812	0.534035	0.569659
	C113	C	-0.005644	0.389267	0.652205
	H114	H	-0.030636	0.379510	0.650916
	C115	C	-0.000198	0.606288	0.371300
	H116	H	0.016644	0.623279	0.394789
	C117	C	-0.006724	1.078355	0.601987
	C118	C	0.023760	1.060529	0.551589
	C119	C	0.023406	1.029834	0.506369
	C120	C	-0.007422	1.015389	0.509347
	C121	C	-0.037961	1.033480	0.559728
	C122	C	-0.037662	1.064212	0.604854
	C123	C	-0.007747	0.982344	0.461283
	C124	C	-0.026398	0.958002	0.490143
	C125	C	-0.026646	0.927138	0.445496
	C126	C	-0.008375	0.919118	0.369581
	C127	C	0.010284	0.943292	0.340396
	C128	C	0.010581	0.974121	0.385171
	H129	H	-0.041026	0.908646	0.469137
	H130	H	-0.061649	1.077623	0.642955
	H131	H	0.024570	0.937714	0.281843
	H132	H	0.047922	1.071071	0.548771
	H133	H	-0.040186	0.963004	0.549174
	H134	H	-0.062501	1.023579	0.562191
	H135	H	0.047725	1.016341	0.469434
	H136	H	0.024647	0.992567	0.360356
	C137	C	-0.006413	1.110817	0.650340
	H138	H	-0.031367	1.122767	0.688807
	C139	C	-0.008385	0.886288	0.322342
	H140	H	0.006794	0.882014	0.263649
	C141	C	0.502785	0.767459	0.361180
	C142	C	0.402883	0.775476	0.522027
	C143	C	0.493160	0.853497	0.205772
	C144	C	0.516714	0.665065	0.222719
	C145	C	0.597726	0.772340	0.494182
	C146	C	0.403881	0.767707	0.440529
	C147	C	0.526185	0.829517	0.209617
	C148	C	0.511814	0.668687	0.305154
	C149	C	0.569052	0.801433	0.492155
	C150	C	0.435586	0.765486	0.391105
	C151	C	0.528583	0.802807	0.259373
	C152	C	0.507535	0.701158	0.347469
	C153	C	0.539564	0.799432	0.449452
	C154	C	0.467803	0.770852	0.419979
	C155	C	0.498439	0.798588	0.307783
	C156	C	0.507808	0.731613	0.310096
	C157	C	0.537069	0.768453	0.406661
	C158	C	0.466894	0.777160	0.501924
	C159	C	0.465925	0.823557	0.305860
	C160	C	0.511607	0.727885	0.227537
	C161	C	0.566870	0.740061	0.405311
	C162	C	0.435258	0.779517	0.551810
	C163	C	0.463276	0.850345	0.256141
	C164	C	0.515936	0.695476	0.184730
	C165	C	0.596547	0.741892	0.447617
	H166	H	0.379411	0.763666	0.416170
	H167	H	0.549931	0.831626	0.172229
	H168	H	0.511473	0.645641	0.335715
	H169	H	0.570058	0.825672	0.525133
	H170	H	0.435640	0.759314	0.328307
	H171	H	0.554407	0.784490	0.260799
	H172	H	0.503682	0.703231	0.411230
	H173	H	0.517704	0.822342	0.449139
	H174	H	0.491253	0.779975	0.528116
	H175	H	0.442152	0.822528	0.344152
	H176	H	0.510827	0.750601	0.195474
	H177	H	0.567418	0.716093	0.369807
	H178	H	0.435330	0.784586	0.614923
	H179	H	0.437740	0.869215	0.255658
	H180	H	0.519083	0.693482	0.120926
	H181	H	0.619288	0.719511	0.443927
	N182	N	0.371466	0.776730	0.572752
	N183	N	0.490346	0.880879	0.156935
	N184	N	0.519854	0.632481	0.180317
	N185	N	0.627307	0.774842	0.537276
	C186	C	0.018991	0.250288	0.853431
	C187	C	0.020160	0.155108	0.697407
	C188	C	0.118546	0.243277	0.977174
	C189	C	-0.082403	0.259643	1.010055
	C190	C	0.019679	0.345010	0.728994
	C191	C	0.018858	0.155142	0.779519
	C192	C	0.090053	0.273140	0.987091
	C193	C	-0.082060	0.258562	0.927999
	C194	C	0.048750	0.315663	0.717932
	C195	C	0.018539	0.185458	0.827191
	C196	C	0.058904	0.274633	0.947881
	C197	C	-0.049759	0.255495	0.880093
	C198	C	0.047894	0.286083	0.757326
	C199	C	0.020512	0.216953	0.795833
	C200	C	0.054016	0.246298	0.898690
	C201	C	-0.016384	0.254372	0.911276
	C202	C	0.017724	0.283720	0.808030
	C203	C	0.021857	0.216638	0.713651
	C204	C	0.082653	0.216519	0.889282
	C205	C	-0.016964	0.255443	0.993470
	C206	C	-0.011164	0.313275	0.819222
	C207	C	0.022170	0.186390	0.665463
	C208	C	0.113978	0.214835	0.928166
	C209	C	-0.049198	0.258424	1.041897
	C210	C	-0.010458	0.343061	0.780334
	H211	H	0.017918	0.131164	0.805840
	H212	H	0.093027	0.295610	1.024214
	H213	H	-0.107465	0.259749	0.902127
	H214	H	0.072483	0.316631	0.679092
	H215	H	0.016754	0.184953	0.890610
	H216	H	0.037826	0.298475	0.954628
	H217	H	-0.050166	0.253987	0.816681
	H218	H	0.071299	0.264237	0.749430
	H219	H	0.022229	0.240401	0.686266
	H220	H	0.081075	0.194348	0.849759
	H221	H	0.008141	0.253621	1.020563
	H222	H	-0.034461	0.313597	0.860351
	H223	H	0.023613	0.186813	0.602029
	H224	H	0.135716	0.191492	0.919670
	H225	H	-0.048833	0.259828	1.105316
	H226	H	-0.033135	0.365518	0.791731
	N227	N	0.021260	0.124524	0.648656
	N228	N	0.149790	0.241400	1.017249
	N229	N	-0.115290	0.263668	1.057719
	N230	N	0.021022	0.374339	0.688089
	C231	C	0.504991	0.428463	0.875251
	C232	C	0.472167	0.448076	0.914725
	C233	C	0.470418	0.480019	0.956887
	C234	C	0.501419	0.493903	0.961810
	C235	C	0.534236	0.474158	0.921936
	C236	C	0.535992	0.442255	0.879566
	C237	C	0.499592	0.528072	1.007318
	C238	C	0.528351	0.533761	1.049927
	C239	C	0.526618	0.565560	1.092685
	C240	C	0.496100	0.593307	1.094698
	C241	C	0.467297	0.587808	1.052328
	C242	C	0.469012	0.555954	1.009766
	H243	H	0.549031	0.569322	1.125470
	H244	H	0.561631	0.427662	0.849235
	H245	H	0.443439	0.608868	1.052927
	H246	H	0.447963	0.437757	0.912078
	H247	H	0.552029	0.512663	1.050911
	H248	H	0.558500	0.484420	0.923038
	H249	H	0.444782	0.494121	0.988081
	H250	H	0.446631	0.552712	0.976417
	C251	C	0.506883	0.394603	0.830455
	H252	H	0.533633	0.381064	0.800929
	C253	C	0.494175	0.626988	1.140306
	H254	H	0.469229	0.647279	1.138874
	C255	C	0.496892	1.074668	-0.128972
	C256	C	0.497940	1.080268	-0.047356
	C257	C	0.499572	1.053094	0.000612
	C258	C	0.500146	1.018988	-0.030626
	C259	C	0.499065	1.013532	-0.112490
	C260	C	0.497568	1.040669	-0.160558
	C261	C	0.501982	0.989820	0.020729
	C262	C	0.483072	0.963424	0.006325
	C263	C	0.484826	0.936179	0.054113
	C264	C	0.505707	0.933887	0.118481
	C265	C	0.524568	0.960197	0.133319
	C266	C	0.522692	0.987510	0.085643
	H267	H	0.469907	0.916166	0.042105
	H268	H	0.496961	1.035654	-0.223499
	H269	H	0.540910	0.958974	0.182668
	H270	H	0.497384	1.106409	-0.022003
	H271	H	0.466171	0.964736	-0.042068
	H272	H	0.500224	0.987422	-0.138752
	H273	H	0.499641	1.058453	0.063605
	H274	H	0.538144	1.007065	0.097602
	C275	C	0.495557	1.103409	-0.179961
	H276	H	0.495363	1.096688	-0.243384
	C277	C	0.507655	0.904901	0.168956
	H278	H	0.524641	0.905041	0.218105
	C279	C	0.335529	0.233626	0.354814
	C280	C	0.299890	0.246697	0.389859
	C281	C	0.270052	0.246609	0.347414
	C282	C	0.274314	0.233443	0.267757
	C283	C	0.310119	0.220179	0.233079
	C284	C	0.339991	0.220231	0.275502
	C285	C	0.242272	0.233721	0.222102
	C286	C	0.243674	0.239347	0.141815
	C287	C	0.213682	0.240090	0.099435
	C288	C	0.180773	0.235158	0.135123
	C289	C	0.179196	0.229438	0.215160
	C290	C	0.209212	0.228722	0.257512
	H291	H	0.215321	0.244757	0.037719
	H292	H	0.367243	0.209779	0.247190
	H293	H	0.154104	0.225478	0.244053
	H294	H	0.295927	0.257179	0.451109
	H295	H	0.268364	0.244071	0.112710
	H296	H	0.314468	0.209073	0.172324
	H297	H	0.242970	0.257701	0.375941
	H298	H	0.207324	0.223567	0.318852
	C299	C	0.367177	0.233890	0.399818
	H300	H	0.394122	0.223588	0.367509
	C301	C	0.148772	0.236602	0.090453
	H302	H	0.123799	0.233271	0.123220
	C303	C	0.675098	0.255001	0.383543
	C304	C	0.693459	0.223461	0.341060
	C305	C	0.726219	0.220847	0.295464
	C306	C	0.742229	0.249649	0.289964
	C307	C	0.723704	0.281193	0.332775
	C308	C	0.690998	0.283809	0.378554
	C309	C	0.777314	0.246915	0.240974
	C310	C	0.783794	0.274641	0.199043
	C311	C	0.816405	0.272073	0.152976
	C312	C	0.844252	0.241701	0.146772
	C313	C	0.837990	0.213944	0.188533
	C314	C	0.805315	0.216505	0.234437
	H315	H	0.820704	0.293703	0.120708
	H316	H	0.677439	0.308425	0.411172
	H317	H	0.859102	0.190211	0.184766
	H318	H	0.681517	0.200955	0.344194
	H319	H	0.762597	0.298227	0.201181
	H320	H	0.735619	0.303741	0.331284
	H321	H	0.739285	0.196273	0.262111
	H322	H	0.801552	0.194870	0.267175
	C323	C	0.640536	0.257835	0.432589
	H324	H	0.628275	0.283517	0.464248
	C325	C	0.878620	0.238812	0.096930
	H326	H	0.898884	0.214013	0.094750
	C327	C	0.490750	0.247543	0.643668
	C328	C	0.394031	0.245691	0.514238
	C329	C	0.592731	0.236230	0.487533
	C330	C	0.494019	0.160989	0.796309
	C331	C	0.482432	0.349013	0.782264
	C332	C	0.421510	0.215649	0.517508
	C333	C	0.591009	0.243987	0.569221
	C334	C	0.462226	0.186582	0.792541
	C335	C	0.488057	0.345223	0.699828
	C336	C	0.451757	0.216874	0.558308
	C337	C	0.558600	0.247411	0.617014
	C338	C	0.461764	0.213405	0.743604
	C339	C	0.490600	0.313040	0.657514
	C340	C	0.456672	0.247990	0.596518
	C341	C	0.526556	0.242434	0.586611
	C342	C	0.493026	0.216695	0.697660
	C343	C	0.486812	0.283283	0.694632
	C344	C	0.429007	0.277830	0.593073
	C345	C	0.528642	0.234399	0.504961
	C346	C	0.524671	0.190858	0.701638
	C347	C	0.481038	0.287422	0.777068
	C348	C	0.398653	0.276834	0.552419
	C349	C	0.560987	0.230968	0.456643
	C350	C	0.525350	0.163871	0.750318
	C351	C	0.478470	0.319537	0.819877
	H352	H	0.418556	0.191004	0.489622
	H353	H	0.615317	0.247459	0.595138
	H354	H	0.437714	0.185015	0.827972
	H355	H	0.490546	0.367765	0.669107
	H356	H	0.472163	0.193103	0.561394
	H357	H	0.557889	0.254063	0.679817
	H358	H	0.436598	0.232515	0.740875
	H359	H	0.495551	0.310701	0.593868
	H360	H	0.430577	0.302368	0.623487
	H361	H	0.504628	0.231085	0.477939
	H362	H	0.549342	0.191405	0.665883
	H363	H	0.478814	0.265286	0.809197
	H364	H	0.377738	0.300375	0.550640
	H365	H	0.561873	0.224481	0.393737
	H366	H	0.550415	0.144639	0.753089
	H367	H	0.473625	0.322035	0.883560
	N368	N	0.363618	0.245584	0.472390
	N369	N	0.625386	0.232053	0.438798
	N370	N	0.494849	0.134626	0.847521
	N371	N	0.479058	0.381388	0.825764
