data_Molecule from CHK

_cell_length_a		38.029290
_cell_length_b		37.956927
_cell_length_c		13.399150
_cell_angle_alpha	89.315379
_cell_angle_beta	90.611693
_cell_angle_gamma	93.520036
_symmetry_space_group_name_H-M	'P 1'
_symmetry_Int_Tables_number		1

loop_
	_symmetry_equiv_pos_as_xyz
	x,y,z

loop_
	_atom_site_label
	_atom_site_type_symbol
	_atom_site_fract_x
	_atom_site_fract_y
	_atom_site_fract_z
	C0	C	0.000469	0.750004	0.502664
	C1	C	-0.009889	0.657044	0.706778
	C2	C	0.002104	0.850702	0.668125
	C3	C	-0.091654	0.738168	0.297241
	C4	C	0.101350	0.753517	0.338376
	C5	C	-0.004140	0.691180	0.744643
	C6	C	-0.027067	0.839701	0.609135
	C7	C	-0.057561	0.744445	0.259754
	C8	C	0.090709	0.724053	0.397015
	C9	C	-0.000753	0.720685	0.681361
	C10	C	-0.027972	0.808037	0.556865
	C11	C	-0.028332	0.748329	0.323580
	C12	C	0.058984	0.722574	0.448874
	C13	C	-0.003113	0.717678	0.577276
	C14	C	0.000229	0.785909	0.560068
	C15	C	-0.031588	0.745868	0.427632
	C16	C	0.036449	0.750462	0.445586
	C17	C	-0.010582	0.683530	0.540366
	C18	C	0.029905	0.797891	0.616181
	C19	C	-0.065734	0.738260	0.464106
	C20	C	0.048034	0.780420	0.389714
	C21	C	-0.013966	0.653922	0.603038
	C22	C	0.030999	0.829459	0.668782
	C23	C	-0.095079	0.734432	0.400890
	C24	C	0.079656	0.782078	0.337476
	H25	H	-0.002295	0.694300	0.824892
	H26	H	-0.049255	0.856306	0.605181
	H27	H	-0.054208	0.746134	0.179555
	H28	H	0.107662	0.702122	0.401127
	H29	H	0.003280	0.746456	0.714494
	H30	H	-0.051055	0.800900	0.512056
	H31	H	-0.002545	0.752662	0.290910
	H32	H	0.052120	0.699302	0.493478
	H33	H	-0.013766	0.680284	0.460427
	H34	H	0.052627	0.781975	0.618072
	H35	H	-0.069174	0.735240	0.544042
	H36	H	0.031763	0.802897	0.387739
	H37	H	-0.020171	0.628084	0.571567
	H38	H	0.054535	0.838054	0.710294
	H39	H	-0.121058	0.728342	0.431413
	H40	H	0.087971	0.805771	0.295973
	N41	N	-0.013663	0.627663	0.771562
	N42	N	0.002898	0.882932	0.718967
	N43	N	-0.121039	0.733667	0.233049
	N44	N	0.133639	0.754986	0.287945
	C45	C	0.328466	0.758800	-0.141277
	C46	C	0.298710	0.737747	-0.171326
	C47	C	0.267503	0.737081	-0.117862
	C48	C	0.264510	0.757376	-0.031567
	C49	C	0.294427	0.778458	-0.001848
	C50	C	0.325621	0.779229	-0.055451
	C51	C	0.231062	0.756596	0.025851
	C52	C	0.231229	0.758600	0.130605
	C53	C	0.200043	0.757670	0.184226
	C54	C	0.167129	0.754837	0.135738
	C55	C	0.166769	0.752838	0.031203
	C56	C	0.197978	0.753676	-0.022340
	H57	H	0.200800	0.759026	0.265036
	H58	H	0.348203	0.795833	-0.030980
	H59	H	0.141669	0.750648	-0.007998
	H60	H	0.300482	0.721753	-0.237415
	H61	H	0.256189	0.760078	0.170574
	H62	H	0.292848	0.794996	0.063131
	H63	H	0.245262	0.719962	-0.142018
	H64	H	0.196848	0.752758	-0.103132
	C65	C	0.361499	0.759708	-0.198310
	H66	H	0.383386	0.777238	-0.170209
	C67	C	0.134039	0.753526	0.192573
	H68	H	0.109432	0.751187	0.148699
	C69	C	0.677561	0.743391	-0.179801
	C70	C	0.679687	0.766841	-0.099523
	C71	C	0.709322	0.769631	-0.037643
	C72	C	0.738300	0.749083	-0.052850
	C73	C	0.736054	0.725686	-0.133638
	C74	C	0.706454	0.722931	-0.195717
	C75	C	0.770020	0.751998	0.013760
	C76	C	0.788752	0.722307	0.039260
	C77	C	0.818217	0.724979	0.101820
	C78	C	0.830502	0.757507	0.141717
	C79	C	0.811942	0.787246	0.116565
	C80	C	0.782424	0.784528	0.054184
	H81	H	0.832158	0.701703	0.120919
	H82	H	0.705538	0.704776	-0.257635
	H83	H	0.820955	0.812690	0.146304
	H84	H	0.657572	0.782831	-0.086112
	H85	H	0.779585	0.696650	0.011345
	H86	H	0.758217	0.710014	-0.148966
	H87	H	0.709750	0.787474	0.024940
	H88	H	0.769071	0.808095	0.034552
	C89	C	0.646158	0.740464	-0.245568
	H90	H	0.646689	0.721370	-0.306482
	C91	C	0.861595	0.760359	0.208614
	H92	H	0.869386	0.786832	0.236644
	C93	C	-0.010420	0.415937	0.146156
	C94	C	0.022049	0.429107	0.107972
	C95	C	0.024441	0.458856	0.046164
	C96	C	-0.005492	0.477001	0.019615
	C97	C	-0.037958	0.463759	0.058494
	C98	C	-0.040392	0.433958	0.120208
	C99	C	-0.002829	0.508900	-0.046726
	C100	C	-0.024177	0.537397	-0.032994
	C101	C	-0.021513	0.567183	-0.094704
	C102	C	0.002639	0.569956	-0.173227
	C103	C	0.023922	0.541555	-0.187597
	C104	C	0.021273	0.511812	-0.125767
	H105	H	-0.038127	0.588925	-0.082492
	H106	H	-0.065783	0.424288	0.148755
	H107	H	0.042647	0.542967	-0.248138
	H108	H	0.045519	0.415631	0.127782
	H109	H	-0.042574	0.536486	0.028310
	H110	H	-0.061680	0.476678	0.038157
	H111	H	0.050062	0.468694	0.019693
	H112	H	0.037614	0.490046	-0.140019
	C113	C	-0.012887	0.384465	0.212058
	H114	H	-0.039228	0.376087	0.239737
	C115	C	0.005517	0.601434	-0.239036
	H116	H	0.025498	0.601416	-0.297733
	C117	C	0.007252	0.077105	0.151671
	C118	C	-0.010512	0.045926	0.186353
	C119	C	-0.010730	0.014874	0.132143
	C120	C	0.006743	0.013453	0.040424
	C121	C	0.024527	0.044794	0.006039
	C122	C	0.024860	0.075846	0.060384
	C123	C	0.006424	-0.019870	-0.017644
	C124	C	0.004881	-0.019585	-0.122570
	C125	C	0.004382	-0.050694	-0.176639
	C126	C	0.005584	-0.083629	-0.128488
	C127	C	0.007211	-0.084097	-0.023792
	C128	C	0.007608	-0.052978	0.030218
	H129	H	0.002945	-0.049871	-0.257514
	H130	H	0.038922	0.099551	0.032259
	H131	H	0.008227	-0.109208	0.015155
	H132	H	-0.024301	0.046448	0.256712
	H133	H	0.003216	0.005344	-0.162079
	H134	H	0.038880	0.044487	-0.063356
	H135	H	-0.025322	-0.008529	0.160172
	H136	H	0.009565	-0.054144	0.110932
	C137	C	0.007679	0.109957	0.209624
	H138	H	0.022412	0.133142	0.177584
	C139	C	0.004724	-0.116681	-0.185611
	H140	H	0.005677	-0.141281	-0.141789
	C141	C	0.496575	0.747127	0.501648
	C142	C	0.396778	0.743347	0.671303
	C143	C	0.505808	0.841623	0.302951
	C144	C	0.492712	0.647917	0.328753
	C145	C	0.590176	0.755513	0.702828
	C146	C	0.407965	0.773645	0.616672
	C147	C	0.498288	0.807925	0.263681
	C148	C	0.522972	0.658875	0.383498
	C149	C	0.556366	0.748091	0.741150
	C150	C	0.439398	0.775197	0.563379
	C151	C	0.495270	0.777979	0.325325
	C152	C	0.524535	0.690097	0.437923
	C153	C	0.526718	0.745287	0.678666
	C154	C	0.461134	0.746679	0.561389
	C155	C	0.499923	0.780040	0.429068
	C156	C	0.496018	0.711773	0.441307
	C157	C	0.529200	0.750069	0.575005
	C158	C	0.448948	0.716001	0.613136
	C159	C	0.508782	0.813761	0.467282
	C160	C	0.465460	0.699927	0.388836
	C161	C	0.563045	0.758794	0.537750
	C162	C	0.417593	0.714236	0.666620
	C163	C	0.511844	0.843811	0.406218
	C164	C	0.463683	0.668777	0.334243
	C165	C	0.592807	0.761614	0.599649
	H166	H	0.391572	0.796026	0.615682
	H167	H	0.494618	0.805498	0.183641
	H168	H	0.545327	0.642476	0.383606
	H169	H	0.553609	0.744364	0.821105
	H170	H	0.446610	0.799000	0.521446
	H171	H	0.489523	0.752612	0.291067
	H172	H	0.548314	0.697132	0.479848
	H173	H	0.501247	0.739646	0.712242
	H174	H	0.464528	0.693042	0.611151
	H175	H	0.513409	0.816301	0.546934
	H176	H	0.442575	0.715566	0.391316
	H177	H	0.565911	0.763548	0.458212
	H178	H	0.408836	0.690114	0.705488
	H179	H	0.519305	0.869248	0.438581
	H180	H	0.439621	0.660238	0.295068
	H181	H	0.618379	0.768953	0.568103
	N182	N	0.364807	0.741258	0.723376
	N183	N	0.509359	0.871319	0.239367
	N184	N	0.490615	0.616107	0.275742
	N185	N	0.619588	0.758971	0.767142
	C186	C	-0.003845	0.245549	0.504801
	C187	C	-0.007157	0.143556	0.345433
	C188	C	0.088222	0.257691	0.710838
	C189	C	-0.106073	0.241944	0.662489
	C190	C	0.010431	0.338001	0.300289
	C191	C	0.023099	0.155616	0.398520
	C192	C	0.054408	0.248919	0.747527
	C193	C	-0.093861	0.272394	0.610137
	C194	C	0.002088	0.304189	0.262666
	C195	C	0.024478	0.187691	0.448855
	C196	C	0.025172	0.245091	0.683671
	C197	C	-0.061728	0.273869	0.560252
	C198	C	-0.002536	0.274861	0.326212
	C199	C	-0.003854	0.209671	0.447098
	C200	C	0.028242	0.249132	0.579930
	C201	C	-0.039827	0.245452	0.561786
	C202	C	0.000187	0.277864	0.430260
	C203	C	-0.033932	0.197422	0.393121
	C204	C	0.062231	0.257998	0.543921
	C205	C	-0.052294	0.215141	0.614757
	C206	C	0.008395	0.311909	0.467090
	C207	C	-0.035558	0.165379	0.342801
	C208	C	0.091546	0.261977	0.607174
	C209	C	-0.084390	0.213415	0.664620
	C210	C	0.013082	0.341331	0.404159
	H211	H	0.045396	0.139144	0.401704
	H212	H	0.051240	0.245543	0.827463
	H213	H	-0.110239	0.294782	0.607165
	H214	H	-0.000068	0.301022	0.182481
	H215	H	0.048044	0.195311	0.491070
	H216	H	-0.000439	0.239153	0.716105
	H217	H	-0.054006	0.297593	0.518585
	H218	H	-0.007951	0.249204	0.293354
	H219	H	-0.056580	0.213435	0.391179
	H220	H	0.065595	0.261947	0.464233
	H221	H	-0.036402	0.192380	0.616324
	H222	H	0.011288	0.315205	0.547085
	H223	H	-0.059172	0.156664	0.301779
	H224	H	0.117249	0.269188	0.576283
	H225	H	-0.093235	0.189628	0.704961
	H226	H	0.019413	0.367249	0.435016
	N227	N	-0.008417	0.111725	0.292652
	N228	N	0.117510	0.260361	0.775805
	N229	N	-0.137894	0.240584	0.715209
	N230	N	0.014136	0.367712	0.236812
	C231	C	0.503294	0.420047	-0.143997
	C232	C	0.505788	0.453216	-0.191595
	C233	C	0.506644	0.484238	-0.137066
	C234	C	0.504992	0.483644	-0.032242
	C235	C	0.502535	0.450304	0.015070
	C236	C	0.501768	0.419263	-0.039378
	C237	C	0.505918	0.516889	0.026307
	C238	C	0.486013	0.519420	0.113520
	C239	C	0.486883	0.550398	0.168225
	C240	C	0.507815	0.580354	0.138674
	C241	C	0.527667	0.578048	0.051552
	C242	C	0.526694	0.547081	-0.003287
	H243	H	0.471197	0.551815	0.235028
	H244	H	0.500014	0.393963	-0.000831
	H245	H	0.544036	0.600848	0.027169
	H246	H	0.506930	0.454302	-0.272428
	H247	H	0.469046	0.496998	0.137459
	H248	H	0.501981	0.448854	0.095876
	H249	H	0.507835	0.509400	-0.176338
	H250	H	0.542848	0.545899	-0.069165
	C251	C	0.502573	0.387116	-0.201624
	H252	H	0.500721	0.362314	-0.158254
	C253	C	0.508802	0.613198	0.196756
	H254	H	0.525912	0.635398	0.168358
	C255	C	0.506466	1.082853	0.865315
	C256	C	0.474736	1.071612	0.911529
	C257	C	0.472634	1.042250	0.974854
	C258	C	0.502141	1.022628	0.995077
	C259	C	0.533931	1.034152	0.948942
	C260	C	0.536080	1.063557	0.885727
	C261	C	0.499779	0.990947	1.062279
	C262	C	0.519153	0.961344	1.043820
	C263	C	0.516734	0.931660	1.105908
	C264	C	0.494888	0.930125	1.189742
	C265	C	0.475506	0.959582	1.208676
	C266	C	0.477909	0.989240	1.146447
	H267	H	0.531761	0.909049	1.089896
	H268	H	0.560959	1.071864	0.851462
	H269	H	0.458499	0.959073	1.273131
	H270	H	0.451589	1.086226	0.896546
	H271	H	0.535717	0.961309	0.978527
	H272	H	0.557417	1.020183	0.964649
	H273	H	0.447504	1.033861	1.007470
	H274	H	0.463148	1.011840	1.164208
	C275	C	0.508665	1.113865	0.797688
	H276	H	0.534484	1.120779	0.764265
	C277	C	0.492007	0.898515	1.255070
	H278	H	0.473676	0.899328	1.317758
	C279	C	0.329340	0.256013	0.146130
	C280	C	0.317466	0.223969	0.102567
	C281	C	0.287749	0.221703	0.040926
	C282	C	0.268398	0.251358	0.019748
	C283	C	0.280516	0.283443	0.063384
	C284	C	0.310258	0.285749	0.124969
	C285	C	0.236492	0.248921	-0.046251
	C286	C	0.207393	0.269057	-0.028535
	C287	C	0.177646	0.266793	-0.090074
	C288	C	0.175527	0.244320	-0.172556
	C289	C	0.204417	0.224065	-0.190501
	C290	C	0.234139	0.226325	-0.128848
	H291	H	0.155467	0.282488	-0.074805
	H292	H	0.319030	0.310861	0.157242
	H293	H	0.203447	0.206540	-0.253867
	H294	H	0.331886	0.200715	0.118241
	H295	H	0.207824	0.286177	0.035656
	H296	H	0.266765	0.307036	0.046902
	H297	H	0.278901	0.196349	0.010352
	H298	H	0.256317	0.210914	-0.146030
	C299	C	0.360809	0.258435	0.211667
	H300	H	0.368118	0.284482	0.243341
	C301	C	0.144036	0.241892	-0.238042
	H302	H	0.144551	0.223261	-0.300119
	C303	C	0.667345	0.254337	0.138458
	C304	C	0.700394	0.254379	0.186003
	C305	C	0.731329	0.254901	0.131308
	C306	C	0.730769	0.255362	0.026328
	C307	C	0.697552	0.255384	-0.020926
	C308	C	0.666599	0.254942	0.033709
	C309	C	0.763933	0.255871	-0.032363
	C310	C	0.765560	0.237638	-0.122804
	C311	C	0.796486	0.238033	-0.177496
	C312	C	0.827305	0.256801	-0.144702
	C313	C	0.825889	0.275010	-0.054430
	C314	C	0.794966	0.274515	0.000370
	H315	H	0.797182	0.223630	-0.246804
	H316	H	0.641399	0.255109	-0.004780
	H317	H	0.849360	0.289706	-0.027534
	H318	H	0.701450	0.253862	0.266926
	H319	H	0.742440	0.222307	-0.149396
	H320	H	0.696152	0.256514	-0.101723
	H321	H	0.756353	0.254148	0.170478
	H322	H	0.794515	0.289396	0.068819
	C323	C	0.634523	0.253934	0.196381
	H324	H	0.609809	0.253988	0.153091
	C325	C	0.860125	0.257166	-0.202616
	H326	H	0.883032	0.272601	-0.171770
	C327	C	0.500202	0.251366	0.500445
	C328	C	0.408496	0.235660	0.294884
	C329	C	0.602596	0.253362	0.343965
	C330	C	0.485635	0.161098	0.712478
	C331	C	0.503452	0.354886	0.651820
	C332	C	0.442502	0.242557	0.257316
	C333	C	0.590943	0.223993	0.401645
	C334	C	0.492842	0.195447	0.747512
	C335	C	0.473768	0.342988	0.596140
	C336	C	0.471643	0.247546	0.321095
	C337	C	0.558783	0.222995	0.451298
	C338	C	0.497494	0.224128	0.681655
	C339	C	0.472400	0.310494	0.547964
	C340	C	0.468246	0.246674	0.425229
	C341	C	0.536301	0.250872	0.444337
	C342	C	0.495961	0.219913	0.577823
	C343	C	0.500200	0.287929	0.554566
	C344	C	0.434043	0.239700	0.461975
	C345	C	0.548273	0.280222	0.386552
	C346	C	0.488688	0.185373	0.543619
	C347	C	0.529883	0.300182	0.610226
	C348	C	0.404809	0.234683	0.398833
	C349	C	0.580376	0.281450	0.336766
	C350	C	0.484006	0.156588	0.608855
	C351	C	0.531476	0.332610	0.658550
	H352	H	0.445910	0.243348	0.177071
	H353	H	0.607740	0.201989	0.408128
	H354	H	0.494134	0.199491	0.827462
	H355	H	0.451815	0.359840	0.590037
	H356	H	0.497448	0.251752	0.288447
	H357	H	0.551504	0.200094	0.496964
	H358	H	0.501945	0.250225	0.712472
	H359	H	0.449257	0.303000	0.503789
	H360	H	0.430464	0.238096	0.542109
	H361	H	0.531942	0.302612	0.381216
	H362	H	0.486556	0.181168	0.463830
	H363	H	0.552216	0.283791	0.615161
	H364	H	0.378763	0.229371	0.429712
	H365	H	0.588813	0.304651	0.293290
	H366	H	0.478438	0.130262	0.579923
	H367	H	0.554864	0.341256	0.700653
	N368	N	0.378973	0.231838	0.230996
	N369	N	0.634501	0.253559	0.291902
	N370	N	0.482106	0.132052	0.778461
	N371	N	0.504067	0.387044	0.702984
