data_Molecule from CHK

_cell_length_a		40.220216
_cell_length_b		40.189500
_cell_length_c		11.683769
_cell_angle_alpha	88.148159
_cell_angle_beta	91.965992
_cell_angle_gamma	82.770088
_symmetry_space_group_name_H-M	'P 1'
_symmetry_Int_Tables_number		1

loop_
	_symmetry_equiv_pos_as_xyz
	x,y,z

loop_
	_atom_site_label
	_atom_site_type_symbol
	_atom_site_fract_x
	_atom_site_fract_y
	_atom_site_fract_z
	C0	C	0.002094	0.749241	0.498072
	C1	C	0.008242	0.650316	0.684495
	C2	C	0.005827	0.835005	0.726161
	C3	C	-0.096342	0.756795	0.307659
	C4	C	0.088248	0.752601	0.272414
	C5	C	-0.021055	0.673433	0.680021
	C6	C	0.009837	0.838129	0.607689
	C7	C	-0.073590	0.727222	0.312500
	C8	C	0.091275	0.756220	0.391175
	C9	C	-0.022142	0.704704	0.623431
	C10	C	0.008453	0.810830	0.537739
	C11	C	-0.042475	0.725669	0.370513
	C12	C	0.063853	0.754942	0.460337
	C13	C	0.005453	0.714496	0.566541
	C14	C	0.003378	0.778997	0.581699
	C15	C	-0.032553	0.753013	0.428881
	C16	C	0.031990	0.750370	0.415280
	C17	C	0.034289	0.690904	0.568846
	C18	C	0.000568	0.775840	0.700720
	C19	C	-0.055694	0.782208	0.425502
	C20	C	0.028943	0.747938	0.296036
	C21	C	0.035689	0.659692	0.626167
	C22	C	0.001897	0.803084	0.771406
	C23	C	-0.086747	0.784068	0.366790
	C24	C	0.056311	0.749163	0.226132
	H25	H	-0.043457	0.666752	0.719042
	H26	H	0.014290	0.862157	0.570554
	H27	H	-0.080442	0.704977	0.272569
	H28	H	0.115319	0.760305	0.429193
	H29	H	-0.045196	0.721942	0.621172
	H30	H	0.011489	0.814091	0.446362
	H31	H	-0.025508	0.702422	0.372943
	H32	H	0.067030	0.757678	0.551949
	H33	H	0.056094	0.696515	0.524033
	H34	H	-0.002339	0.751684	0.739819
	H35	H	-0.049893	0.803906	0.470815
	H36	H	0.004779	0.745427	0.256165
	H37	H	0.058303	0.641891	0.625596
	H38	H	-0.000122	0.799878	0.863308
	H39	H	-0.104243	0.806920	0.366833
	H40	H	0.053191	0.747460	0.134038
	N41	N	0.010074	0.617903	0.734653
	N42	N	0.007999	0.862146	0.797907
	N43	N	-0.128645	0.759046	0.256364
	N44	N	0.115500	0.754739	0.201446
	C45	C	0.318850	0.748279	-0.179562
	C46	C	0.321537	0.739144	-0.062407
	C47	C	0.293158	0.736552	0.000556
	C48	C	0.260684	0.743048	-0.050393
	C49	C	0.258162	0.752084	-0.167984
	C50	C	0.286525	0.754576	-0.231104
	C51	C	0.230244	0.740554	0.017326
	C52	C	0.200645	0.762866	-0.003758
	C53	C	0.172374	0.760815	0.060253
	C54	C	0.172236	0.736239	0.148205
	C55	C	0.201648	0.713811	0.169410
	C56	C	0.229940	0.715946	0.105559
	H57	H	0.149906	0.778462	0.043136
	H58	H	0.283802	0.761507	-0.321671
	H59	H	0.202138	0.694545	0.236745
	H60	H	0.346337	0.734248	-0.021237
	H61	H	0.200101	0.782610	-0.069445
	H62	H	0.233571	0.756568	-0.210635
	H63	H	0.296122	0.730148	0.091441
	H64	H	0.252070	0.697884	0.122568
	C65	C	0.348828	0.751110	-0.246782
	H66	H	0.344238	0.758092	-0.338261
	C67	C	0.142547	0.734435	0.217882
	H68	H	0.144801	0.714494	0.285395
	C69	C	0.662329	0.753680	-0.126858
	C70	C	0.690189	0.748872	-0.196216
	C71	C	0.722704	0.747732	-0.150204
	C72	C	0.729090	0.751111	-0.032288
	C73	C	0.701013	0.755753	0.036852
	C74	C	0.668458	0.757083	-0.009171
	C75	C	0.764020	0.749668	0.017240
	C76	C	0.771249	0.767689	0.114328
	C77	C	0.803716	0.766117	0.161154
	C78	C	0.830698	0.746561	0.113020
	C79	C	0.823773	0.728762	0.015523
	C80	C	0.791251	0.730227	-0.030899
	H81	H	0.808638	0.780239	0.236090
	H82	H	0.647370	0.760543	0.046432
	H83	H	0.844167	0.713423	-0.023252
	H84	H	0.685923	0.746243	-0.287454
	H85	H	0.751247	0.783709	0.152491
	H86	H	0.704807	0.757602	0.128564
	H87	H	0.743464	0.744858	-0.207229
	H88	H	0.786730	0.715412	-0.104363
	C89	C	0.627840	0.754878	-0.176045
	H90	H	0.607532	0.760825	-0.116694
	C91	C	0.865094	0.744683	0.163524
	H92	H	0.884897	0.730099	0.117007
	C93	C	0.004023	0.408812	0.116617
	C94	C	-0.000924	0.436795	0.185622
	C95	C	-0.002179	0.469281	0.139289
	C96	C	0.001222	0.475522	0.021371
	C97	C	0.005936	0.447329	-0.047470
	C98	C	0.007382	0.414795	-0.001110
	C99	C	-0.000167	0.510437	-0.028224
	C100	C	0.017934	0.517602	-0.124985
	C101	C	0.016535	0.550092	-0.171486
	C102	C	-0.002945	0.577153	-0.123403
	C103	C	-0.020923	0.570268	-0.026486
	C104	C	-0.019633	0.537728	0.019594
	H105	H	0.030763	0.554975	-0.246048
	H106	H	0.010937	0.393610	-0.056448
	H107	H	-0.036239	0.590714	0.012176
	H108	H	-0.003532	0.432651	0.276881
	H109	H	0.033918	0.497539	-0.163026
	H110	H	0.007787	0.451015	-0.139188
	H111	H	-0.005124	0.490135	0.196090
	H112	H	-0.034565	0.533247	0.092636
	C113	C	0.005548	0.374361	0.166458
	H114	H	0.011668	0.353925	0.107601
	C115	C	-0.004500	0.611608	-0.173124
	H116	H	-0.018993	0.631447	-0.126423
	C117	C	-0.000175	0.064658	0.187472
	C118	C	-0.009242	0.067685	0.070250
	C119	C	-0.011341	0.039468	0.005667
	C120	C	-0.004420	0.006821	0.054986
	C121	C	0.004619	0.003957	0.172603
	C122	C	0.006631	0.032155	0.237333
	C123	C	-0.006589	-0.023440	-0.014319
	C124	C	0.015851	-0.052998	0.005886
	C125	C	0.013951	-0.081148	-0.059196
	C126	C	-0.010602	-0.081207	-0.147379
	C127	C	-0.033147	-0.051831	-0.167753
	C128	C	-0.031170	-0.023666	-0.102811
	H129	H	0.031684	-0.103589	-0.042696
	H130	H	0.013530	0.029160	0.327911
	H131	H	-0.052403	-0.051280	-0.235234
	H132	H	-0.014515	0.092627	0.030359
	H133	H	0.035569	-0.053608	0.071775
	H134	H	0.009451	-0.020783	0.214038
	H135	H	-0.017729	0.042717	-0.085196
	H136	H	-0.049348	-0.001587	-0.119145
	C137	C	0.001911	0.094470	0.256577
	H138	H	0.009078	0.089598	0.347822
	C139	C	-0.012322	-0.110788	-0.217971
	H140	H	-0.032243	-0.108456	-0.285645
	C141	C	0.489370	0.756613	0.492554
	C142	C	0.406165	0.749008	0.728314
	C143	C	0.476403	0.853986	0.295817
	C144	C	0.485785	0.670914	0.264134
	C145	C	0.589808	0.750416	0.668673
	C146	C	0.410383	0.779747	0.674074
	C147	C	0.470502	0.824370	0.243030
	C148	C	0.516313	0.677835	0.313629
	C149	C	0.562263	0.740988	0.726793
	C150	C	0.436730	0.782506	0.600963
	C151	C	0.474265	0.793596	0.304133
	C152	C	0.517727	0.704840	0.385103
	C153	C	0.530460	0.743064	0.672793
	C154	C	0.460170	0.754881	0.577975
	C155	C	0.484260	0.790773	0.420567
	C156	C	0.488869	0.726123	0.411558
	C157	C	0.524402	0.754515	0.558496
	C158	C	0.455286	0.724090	0.630952
	C159	C	0.490773	0.820511	0.472046
	C160	C	0.458371	0.718609	0.363153
	C161	C	0.551966	0.764425	0.501758
	C162	C	0.429059	0.721115	0.704294
	C163	C	0.487047	0.851357	0.411659
	C164	C	0.456744	0.691709	0.291444
	C165	C	0.583711	0.762606	0.555145
	H166	H	0.392846	0.801713	0.690178
	H167	H	0.462767	0.825765	0.152985
	H168	H	0.539171	0.661990	0.294717
	H169	H	0.565696	0.731163	0.814418
	H170	H	0.438455	0.806686	0.559944
	H171	H	0.469636	0.771471	0.259006
	H172	H	0.541848	0.708902	0.421915
	H173	H	0.510061	0.735654	0.721526
	H174	H	0.472444	0.701967	0.613508
	H175	H	0.498984	0.819220	0.561632
	H176	H	0.435473	0.734330	0.382452
	H177	H	0.548375	0.773565	0.413341
	H178	H	0.425949	0.696964	0.743683
	H179	H	0.492153	0.873816	0.454389
	H180	H	0.432808	0.686525	0.255487
	H181	H	0.604436	0.770510	0.508804
	N182	N	0.378692	0.745584	0.797267
	N183	N	0.474012	0.884569	0.232232
	N184	N	0.483909	0.642972	0.195852
	N185	N	0.622154	0.749468	0.718420
	C186	C	0.004633	0.238029	0.509241
	C187	C	-0.001540	0.151779	0.284989
	C188	C	0.100266	0.229470	0.715239
	C189	C	-0.083840	0.235821	0.724841
	C190	C	0.001808	0.336633	0.323089
	C191	C	0.029049	0.157046	0.338180
	C192	C	0.070631	0.222600	0.765468
	C193	C	-0.076182	0.266151	0.676057
	C194	C	-0.008054	0.308824	0.267249
	C195	C	0.031344	0.184244	0.408216
	C196	C	0.040363	0.225048	0.701596
	C197	C	-0.048395	0.267131	0.608153
	C198	C	-0.006956	0.277541	0.324270
	C199	C	0.003568	0.207993	0.426646
	C200	C	0.038294	0.233667	0.584081
	C201	C	-0.026444	0.238166	0.587590
	C202	C	0.002975	0.272541	0.440347
	C203	C	-0.026785	0.202801	0.371164
	C204	C	0.068281	0.239946	0.534210
	C205	C	-0.034066	0.208022	0.638288
	C206	C	0.012229	0.300635	0.495915
	C207	C	-0.029304	0.175684	0.301083
	C208	C	0.098598	0.237612	0.597415
	C209	C	-0.061793	0.206822	0.706211
	C210	C	0.011483	0.331822	0.439457
	H211	H	0.051169	0.139415	0.324965
	H212	H	0.071487	0.215754	0.856163
	H213	H	-0.092327	0.289144	0.691351
	H214	H	-0.016832	0.311485	0.178341
	H215	H	0.055301	0.186515	0.450016
	H216	H	0.018034	0.220447	0.745304
	H217	H	-0.044087	0.291019	0.570124
	H218	H	-0.013958	0.256717	0.276592
	H219	H	-0.048945	0.220393	0.384225
	H220	H	0.067605	0.246904	0.443636
	H221	H	-0.017777	0.185058	0.623785
	H222	H	0.020044	0.297893	0.585795
	H223	H	-0.053077	0.172477	0.259029
	H224	H	0.121313	0.242222	0.555625
	H225	H	-0.066862	0.183195	0.744925
	H226	H	0.018593	0.353042	0.485231
	N227	N	-0.004178	0.124492	0.214170
	N228	N	0.130684	0.226792	0.780001
	N229	N	-0.111474	0.234562	0.794710
	N230	N	0.000295	0.368882	0.272151
	C231	C	0.492216	0.435345	-0.161121
	C232	C	0.517529	0.438097	-0.077601
	C233	C	0.517283	0.466634	-0.013197
	C234	C	0.491755	0.493869	-0.029271
	C235	C	0.466394	0.490941	-0.112939
	C236	C	0.466557	0.462350	-0.177160
	C237	C	0.491657	0.524501	0.039535
	C238	C	0.480999	0.556725	-0.008983
	C239	C	0.481290	0.585313	0.054957
	C240	C	0.492084	0.583059	0.170725
	C241	C	0.502650	0.550966	0.219757
	C242	C	0.502461	0.522406	0.155638
	H243	H	0.473220	0.609956	0.015671
	H244	H	0.446612	0.460700	-0.240679
	H245	H	0.511053	0.548580	0.309119
	H246	H	0.537559	0.417452	-0.064199
	H247	H	0.473152	0.559391	-0.098810
	H248	H	0.445947	0.511159	-0.125790
	H249	H	0.537611	0.468210	0.048904
	H250	H	0.510210	0.497918	0.196382
	C251	C	0.492529	0.405058	-0.229394
	H252	H	0.471605	0.404784	-0.292243
	C253	C	0.492862	0.613319	0.238448
	H254	H	0.501781	0.609135	0.328394
	C255	C	0.496885	1.085226	0.819362
	C256	C	0.519459	1.077099	0.913243
	C257	C	0.519956	1.047113	0.976612
	C258	C	0.497880	1.023786	0.949333
	C259	C	0.475291	1.032084	0.855136
	C260	C	0.474827	1.062033	0.791532
	C261	C	0.498520	0.991553	1.016876
	C262	C	0.468915	0.977523	1.038242
	C263	C	0.469548	0.947411	1.100997
	C264	C	0.499836	0.929774	1.145105
	C265	C	0.529463	0.943683	1.124374
	C266	C	0.528792	0.973847	1.061893
	H267	H	0.446411	0.937083	1.116799
	H268	H	0.457287	1.067664	0.718944
	H269	H	0.553181	0.930493	1.157449
	H270	H	0.536617	1.094802	0.936018
	H271	H	0.445030	0.990795	1.007127
	H272	H	0.458406	1.014371	0.830162
	H273	H	0.537257	1.041941	1.050014
	H274	H	0.552156	0.983592	1.045242
	C275	C	0.496521	1.116889	0.751520
	H276	H	0.478092	1.121199	0.679207
	C277	C	0.500612	0.897799	1.211411
	H278	H	0.525454	0.885674	1.242512
	C279	C	0.332482	0.249021	0.188618
	C280	C	0.325011	0.270400	0.091375
	C281	C	0.294985	0.270884	0.028187
	C282	C	0.270936	0.250002	0.059039
	C283	C	0.278578	0.228601	0.156592
	C284	C	0.308582	0.228143	0.219989
	C285	C	0.238662	0.250687	-0.008407
	C286	C	0.223599	0.221359	-0.024638
	C287	C	0.193499	0.222064	-0.087634
	C288	C	0.176911	0.252159	-0.137139
	C289	C	0.191830	0.281509	-0.121411
	C290	C	0.221966	0.280762	-0.058650
	H291	H	0.182378	0.199134	-0.099541
	H292	H	0.313702	0.211543	0.295189
	H293	H	0.179460	0.305083	-0.158677
	H294	H	0.343261	0.286631	0.065803
	H295	H	0.236056	0.197583	0.010666
	H296	H	0.260325	0.212676	0.184294
	H297	H	0.290345	0.287211	-0.047812
	H298	H	0.232488	0.303964	-0.045984
	C299	C	0.364202	0.248720	0.256183
	H300	H	0.368078	0.231198	0.331038
	C301	C	0.145032	0.253050	-0.204152
	H302	H	0.133814	0.277768	-0.239523
	C303	C	0.682479	0.244232	0.160520
	C304	C	0.685042	0.269661	0.077371
	C305	C	0.713344	0.269430	0.012071
	C306	C	0.740523	0.243797	0.026811
	C307	C	0.737799	0.218338	0.110202
	C308	C	0.709445	0.218489	0.175330
	C309	C	0.770868	0.243644	-0.043191
	C310	C	0.803201	0.232670	0.003823
	C311	C	0.831507	0.232791	-0.061360
	C312	C	0.828851	0.243735	-0.176931
	C313	C	0.796651	0.254676	-0.224412
	C314	C	0.768375	0.254648	-0.159059
	H315	H	0.856239	0.224446	-0.023228
	H316	H	0.707944	0.198458	0.238565
	H317	H	0.793949	0.263216	-0.313579
	H318	H	0.664430	0.289763	0.064926
	H319	H	0.806193	0.224679	0.093446
	H320	H	0.757971	0.197811	0.122085
	H321	H	0.714771	0.289841	-0.049742
	H322	H	0.743790	0.262659	-0.198696
	C323	C	0.652410	0.244489	0.229569
	H324	H	0.652280	0.223481	0.292092
	C325	C	0.858804	0.244184	-0.246121
	H326	H	0.854289	0.253064	-0.335974
	C327	C	0.511429	0.263354	0.501634
	C328	C	0.415919	0.266765	0.297612
	C329	C	0.599455	0.267258	0.285175
	C330	C	0.515325	0.168045	0.706814
	C331	C	0.515334	0.351910	0.716491
	C332	C	0.440317	0.238532	0.301679
	C333	C	0.601947	0.268727	0.404878
	C334	C	0.487126	0.192479	0.703187
	C335	C	0.516708	0.354167	0.596752
	C336	C	0.470147	0.238042	0.366637
	C337	C	0.573910	0.267380	0.471123
	C338	C	0.486485	0.222243	0.637847
	C339	C	0.515382	0.325961	0.531042
	C340	C	0.477623	0.265763	0.428319
	C341	C	0.542224	0.263757	0.422374
	C342	C	0.514030	0.229639	0.575413
	C343	C	0.511882	0.294325	0.580386
	C344	C	0.453117	0.293914	0.423237
	C345	C	0.539987	0.262416	0.302609
	C346	C	0.542166	0.205124	0.580171
	C347	C	0.510677	0.292314	0.700193
	C348	C	0.423177	0.294607	0.358488
	C349	C	0.567919	0.263796	0.235620
	C350	C	0.543002	0.175238	0.645252
	C351	C	0.512030	0.320420	0.766650
	H352	H	0.435688	0.216856	0.253575
	H353	H	0.625928	0.271813	0.445609
	H354	H	0.465588	0.187945	0.751919
	H355	H	0.519698	0.378101	0.555554
	H356	H	0.488353	0.215683	0.369800
	H357	H	0.576393	0.269366	0.563274
	H358	H	0.464142	0.240459	0.634944
	H359	H	0.517279	0.328272	0.438845
	H360	H	0.457086	0.315712	0.471222
	H361	H	0.516039	0.260758	0.259711
	H362	H	0.563829	0.209034	0.531627
	H363	H	0.509147	0.268415	0.743554
	H364	H	0.404813	0.316844	0.355191
	H365	H	0.565465	0.262600	0.143168
	H366	H	0.565217	0.156855	0.648232
	H367	H	0.510931	0.318144	0.859145
	N368	N	0.386061	0.268011	0.230577
	N369	N	0.627555	0.267700	0.217208
	N370	N	0.516722	0.138207	0.773981
	N371	N	0.515706	0.380194	0.783897
