data_Molecule from CHK

_cell_length_a		25.877003
_cell_length_b		25.876741
_cell_length_c		35.514299
_cell_angle_alpha	89.988952
_cell_angle_beta	89.999059
_cell_angle_gamma	93.255269
_symmetry_space_group_name_H-M	'P 1'
_symmetry_Int_Tables_number		1

loop_
	_symmetry_equiv_pos_as_xyz
	x,y,z

loop_
	_atom_site_label
	_atom_site_type_symbol
	_atom_site_fract_x
	_atom_site_fract_y
	_atom_site_fract_z
	C0	C	-0.182271	0.759351	0.270623
	C1	C	-0.005991	0.553460	0.464603
	C2	C	-0.010420	0.931983	0.479535
	C3	C	0.196248	0.757545	0.285155
	C4	C	-0.175696	0.714911	0.291920
	C5	C	0.034358	0.591161	0.468479
	C6	C	0.034096	0.925662	0.458272
	C7	C	0.158807	0.716957	0.281269
	C8	C	-0.133372	0.712447	0.316215
	C9	C	0.034006	0.637142	0.447772
	C10	C	0.036826	0.883362	0.433988
	C11	C	0.112901	0.716878	0.302095
	C12	C	-0.095438	0.753116	0.319626
	C13	C	-0.005600	0.647301	0.422280
	C14	C	-0.003638	0.845212	0.430554
	C15	C	0.102543	0.756291	0.327691
	C16	C	-0.101974	0.796444	0.296702
	C17	C	-0.045695	0.608744	0.419051
	C18	C	-0.047017	0.851471	0.453473
	C19	C	0.140853	0.796614	0.330944
	C20	C	-0.144274	0.799680	0.272491
	C21	C	-0.046119	0.562760	0.439729
	C22	C	-0.050526	0.893748	0.477662
	C23	C	0.186755	0.797462	0.310159
	H24	H	-0.203118	0.682055	0.289550
	H25	H	0.066576	0.584650	0.486834
	H26	H	0.066798	0.953270	0.460646
	H27	H	0.165440	0.684880	0.262819
	H28	H	-0.130255	0.677516	0.332597
	H29	H	0.065764	0.665853	0.451368
	H30	H	0.071794	0.880450	0.417621
	H31	H	0.084389	0.684944	0.298491
	H32	H	-0.073236	0.828533	0.297816
	H33	H	-0.077583	0.614089	0.400016
	H34	H	-0.078944	0.822550	0.452354
	H35	H	0.135364	0.828369	0.350064
	H36	H	-0.148481	0.833451	0.255087
	H37	H	-0.077384	0.533550	0.436625
	H38	H	-0.084360	0.897761	0.495033
	H39	H	0.215752	0.828924	0.313265
	N40	N	-0.225699	0.763608	0.244097
	N41	N	-0.007989	0.503649	0.484916
	N42	N	-0.015087	0.975454	0.505956
	N43	N	0.245911	0.760251	0.264648
	O44	O	-0.218090	0.790228	0.214480
	O45	O	-0.041931	0.967841	0.535468
	O46	O	0.284191	0.784876	0.279909
	O47	O	-0.032782	0.465374	0.469786
	C48	C	-0.001849	0.798364	0.403137
	C49	C	0.048674	0.799996	0.379057
	C50	C	0.051528	0.753755	0.351077
	H51	H	0.051068	0.836115	0.362995
	H52	H	0.081903	0.799620	0.398056
	C53	C	0.046964	0.703282	0.374986
	C54	C	-0.003447	0.698363	0.398950
	H55	H	0.047878	0.669296	0.356776
	H56	H	0.081010	0.702531	0.393152
	C57	C	-0.004602	0.746361	0.425243
	H58	H	-0.039895	0.742875	0.442200
	H59	H	0.027704	0.746801	0.445103
	C60	C	-0.048109	0.797748	0.375089
	C61	C	0.003449	0.754674	0.324839
	C62	C	-0.048509	0.751560	0.346997
	H63	H	0.006686	0.790012	0.307917
	H64	H	0.003161	0.722419	0.304945
	C65	C	-0.049783	0.700993	0.371028
	H66	H	-0.084825	0.795748	0.390388
	H67	H	-0.046361	0.834492	0.359823
	H68	H	-0.085860	0.698350	0.387132
	H69	H	-0.049255	0.667815	0.351996
	C70	C	0.299435	0.741481	0.211048
	C71	C	0.684189	0.744376	0.226874
	C72	C	0.508275	0.950868	0.039294
	C73	C	0.505040	0.566007	0.023006
	C74	C	0.346129	0.737251	0.230109
	C75	C	0.689621	0.746920	0.187835
	C76	C	0.512541	0.904245	0.020150
	C77	C	0.502643	0.560534	0.062047
	C78	C	0.392888	0.739114	0.210274
	C79	C	0.645897	0.749342	0.164862
	C80	C	0.510809	0.857422	0.039912
	C81	C	0.500425	0.604242	0.085054
	C82	C	0.395108	0.743880	0.170945
	C83	C	0.595455	0.748759	0.179437
	C84	C	0.506135	0.855065	0.079243
	C85	C	0.501061	0.654709	0.070515
	C86	C	0.347356	0.745888	0.152420
	C87	C	0.591219	0.746199	0.218777
	C88	C	0.504126	0.902750	0.097851
	C89	C	0.503499	0.658995	0.031175
	C90	C	0.300307	0.744473	0.171855
	C91	C	0.634519	0.744144	0.242137
	C92	C	0.505397	0.949855	0.078491
	C93	C	0.505351	0.615710	0.007783
	H94	H	0.346317	0.732185	0.260276
	H95	H	0.727408	0.745956	0.175093
	H96	H	0.517509	0.904144	-0.010025
	H97	H	0.503572	0.522740	0.074785
	H98	H	0.428204	0.736465	0.226280
	H99	H	0.651189	0.751430	0.134620
	H100	H	0.513467	0.822159	0.023849
	H101	H	0.498441	0.598910	0.115296
	H102	H	0.346934	0.748667	0.121980
	H103	H	0.553502	0.745730	0.231944
	H104	H	0.501429	0.903075	0.128295
	H105	H	0.504013	0.696736	0.018038
	H106	H	0.263995	0.746058	0.156977
	H107	H	0.630198	0.742076	0.272385
	H108	H	0.503763	0.986106	0.093439
	H109	H	0.507308	0.620062	-0.022467
	N110	N	0.249023	0.738874	0.230558
	N111	N	0.728217	0.741027	0.252982
	N112	N	0.510581	1.001372	0.019911
	N113	N	0.508044	0.522034	-0.003191
	O114	O	0.210007	0.718634	0.213428
	O115	O	0.530458	1.040460	0.037163
	O116	O	0.530155	0.530443	-0.034659
	O117	O	0.719687	0.719371	0.284604
	C118	C	0.503015	0.803303	0.101751
	C119	C	0.503552	0.754830	0.075635
	C120	C	0.500080	0.702290	0.097321
	H121	H	0.470728	0.755642	0.056289
	H122	H	0.539407	0.757063	0.059274
	C123	C	0.546797	0.703216	0.124970
	C124	C	0.547830	0.749869	0.152676
	H125	H	0.545999	0.667547	0.141504
	H126	H	0.582426	0.704022	0.108395
	C127	C	0.549605	0.800752	0.129256
	H128	H	0.550544	0.833574	0.148675
	H129	H	0.585456	0.804699	0.112956
	C130	C	0.452063	0.798031	0.125086
	C131	C	0.449254	0.700506	0.120802
	C132	C	0.446807	0.747032	0.148366
	H133	H	0.416387	0.699641	0.101422
	H134	H	0.445312	0.664618	0.137064
	C135	C	0.495341	0.746392	0.174418
	H136	H	0.449882	0.830650	0.144466
	H137	H	0.419398	0.800281	0.105751
	H138	H	0.494605	0.779173	0.193804
	H139	H	0.493115	0.710495	0.190736
	C140	C	0.011037	0.450522	0.538800
	C141	C	0.003072	0.065653	0.523096
	C142	C	-0.201055	0.239433	0.710624
	C143	C	0.183930	0.247549	0.727242
	C144	C	0.013970	0.403645	0.519767
	C145	C	0.001929	0.060285	0.562173
	C146	C	-0.154295	0.236491	0.729816
	C147	C	0.189391	0.248500	0.688170
	C148	C	0.011345	0.356923	0.539659
	C149	C	0.000215	0.104038	0.585186
	C150	C	-0.107463	0.238906	0.710063
	C151	C	0.145686	0.249987	0.665084
	C152	C	0.006296	0.354828	0.578973
	C153	C	0.001038	0.154503	0.570626
	C154	C	-0.105143	0.243760	0.670742
	C155	C	0.095181	0.249137	0.679565
	C156	C	0.004337	0.402646	0.597406
	C157	C	0.003403	0.158744	0.531279
	C158	C	-0.152850	0.245691	0.652149
	C159	C	0.090843	0.246939	0.718909
	C160	C	0.006485	0.449674	0.577916
	C161	C	0.004703	0.115411	0.507889
	C162	C	-0.199977	0.243757	0.671496
	C163	C	0.134130	0.245859	0.742371
	H164	H	0.019112	0.403262	0.489611
	H165	H	0.002928	0.022465	0.574867
	H166	H	-0.154083	0.231524	0.759990
	H167	H	0.227236	0.247518	0.675521
	H168	H	0.013497	0.321520	0.523688
	H169	H	-0.001341	0.098765	0.615445
	H170	H	-0.072150	0.236769	0.726147
	H171	H	0.151037	0.251404	0.634831
	H172	H	0.000901	0.403130	0.627809
	H173	H	0.004469	0.196495	0.518128
	H174	H	-0.153167	0.248964	0.621735
	H175	H	0.053051	0.245847	0.731996
	H176	H	0.004707	0.486026	0.592714
	H177	H	0.006856	0.119749	0.477645
	H178	H	-0.236231	0.245554	0.656568
	H179	H	0.129733	0.243846	0.772615
	N180	N	0.012789	0.500887	0.519231
	N181	N	0.007314	0.021632	0.497097
	N182	N	-0.251548	0.238063	0.729994
	N183	N	0.227885	0.243669	0.753357
	O184	O	0.032533	0.540154	0.536353
	O185	O	-0.290836	0.218601	0.712733
	O186	O	0.219411	0.221189	0.784673
	O187	O	0.029258	0.030242	0.465599
	C188	C	-0.053381	0.247037	0.648241
	C189	C	-0.004923	0.246507	0.674375
	C190	C	0.047627	0.249939	0.652717
	H191	H	-0.005738	0.279351	0.693699
	H192	H	-0.007170	0.210662	0.690752
	C193	C	0.046726	0.203179	0.625103
	C194	C	0.000081	0.202142	0.597377
	H195	H	0.082404	0.203955	0.608586
	H196	H	0.045897	0.167569	0.641704
	C197	C	-0.050810	0.200423	0.620771
	H198	H	-0.083628	0.199473	0.601342
	H199	H	-0.054776	0.164584	0.637092
	C200	C	-0.048104	0.297974	0.624869
	C201	C	0.049417	0.300735	0.629202
	C202	C	0.002920	0.303173	0.601612
	H203	H	0.050269	0.333633	0.648553
	H204	H	0.085320	0.304656	0.612958
	C205	C	0.003579	0.254605	0.575604
	H206	H	-0.080705	0.300137	0.605469
	H207	H	-0.050356	0.330657	0.644182
	H208	H	-0.029188	0.255327	0.556200
	H209	H	0.039494	0.256799	0.559313
	C210	C	0.317723	0.260726	0.770669
	C211	C	0.491633	0.054596	0.965738
	C212	C	0.490498	0.432316	0.979440
	C213	C	0.695357	0.257504	0.784100
	C214	C	0.324024	0.216190	0.791920
	C215	C	0.532855	0.091468	0.968941
	C216	C	0.534918	0.425842	0.958105
	C217	C	0.658267	0.216470	0.780928
	C218	C	0.366370	0.213396	0.816164
	C219	C	0.533136	0.137214	0.947913
	C220	C	0.537432	0.383522	0.933815
	C221	C	0.612554	0.216452	0.801965
	C222	C	0.404571	0.253819	0.819568
	C223	C	0.493711	0.147578	0.922320
	C224	C	0.496831	0.345506	0.930444
	C225	C	0.602445	0.255948	0.827557
	C226	C	0.398315	0.297222	0.796666
	C227	C	0.453371	0.109279	0.919089
	C228	C	0.453535	0.351939	0.953414
	C229	C	0.640947	0.296102	0.830752
	C230	C	0.356006	0.300789	0.772513
	C231	C	0.452309	0.063561	0.940104
	C232	C	0.450253	0.394225	0.977623
	C233	C	0.686637	0.296907	0.809719
	H234	H	0.296363	0.183529	0.789559
	H235	H	0.564985	0.084665	0.987311
	H236	H	0.567711	0.453348	0.960449
	H237	H	0.664879	0.184267	0.762585
	H238	H	0.369281	0.178417	0.832525
	H239	H	0.565297	0.165525	0.951276
	H240	H	0.572336	0.380477	0.917397
	H241	H	0.584078	0.184432	0.798623
	H242	H	0.427268	0.329122	0.797765
	H243	H	0.421838	0.114562	0.899728
	H244	H	0.421502	0.323133	0.952335
	H245	H	0.635854	0.327677	0.850109
	H246	H	0.352006	0.334636	0.755148
	H247	H	0.420946	0.034479	0.936898
	H248	H	0.416505	0.398353	0.995061
	H249	H	0.715897	0.328108	0.812908
	N250	N	0.274232	0.265466	0.744273
	N251	N	0.489804	0.004453	0.985611
	N252	N	0.486166	0.475743	1.005949
	N253	N	0.745526	0.258919	0.764273
	O254	O	0.281877	0.292295	0.714752
	O255	O	0.459641	0.468053	1.035600
	O256	O	0.783796	0.283414	0.779622
	O257	O	0.465000	-0.033674	0.970313
	C258	C	0.498385	0.298610	0.903048
	C259	C	0.548897	0.299946	0.878966
	C260	C	0.551496	0.253642	0.851013
	H261	H	0.551486	0.336042	0.862879
	H262	H	0.582112	0.299421	0.897968
	C263	C	0.546673	0.203190	0.874946
	C264	C	0.496245	0.198573	0.898904
	H265	H	0.547399	0.169170	0.856757
	H266	H	0.580700	0.202277	0.893117
	C267	C	0.495357	0.246625	0.925171
	H268	H	0.460058	0.243340	0.942130
	H269	H	0.527656	0.246899	0.945032
	C270	C	0.452132	0.298216	0.875008
	C271	C	0.503427	0.254801	0.824779
	C272	C	0.451477	0.251993	0.846935
	H273	H	0.506859	0.290117	0.807841
	H274	H	0.502967	0.222523	0.804897
	C275	C	0.449930	0.201440	0.870980
	H276	H	0.415422	0.296426	0.890313
	H277	H	0.454074	0.334951	0.859730
	H278	H	0.413851	0.198999	0.887084
	H279	H	0.450274	0.168246	0.851950
