data_Molecule from CHK

_cell_length_a		38.683823
_cell_length_b		39.056905
_cell_length_c		51.789163
_cell_angle_alpha	88.784073
_cell_angle_beta	91.499820
_cell_angle_gamma	85.054397
_symmetry_space_group_name_H-M	'P 1'
_symmetry_Int_Tables_number		1

loop_
	_symmetry_equiv_pos_as_xyz
	x,y,z

loop_
	_atom_site_label
	_atom_site_type_symbol
	_atom_site_fract_x
	_atom_site_fract_y
	_atom_site_fract_z
	C0	C	0.002744	0.753007	0.376269
	C1	C	0.007823	0.655323	0.422541
	C2	C	-0.002580	0.844694	0.425991
	C3	C	-0.092215	0.751522	0.326062
	C4	C	0.096848	0.759732	0.329583
	C5	C	-0.022882	0.677154	0.419362
	C6	C	0.003462	0.846929	0.399397
	C7	C	-0.067281	0.723282	0.328735
	C8	C	0.097143	0.764732	0.356309
	C9	C	-0.023739	0.707771	0.404849
	C10	C	0.005020	0.817771	0.384180
	C11	C	-0.037736	0.724180	0.344649
	C12	C	0.067359	0.762423	0.370656
	C13	C	0.005604	0.718424	0.392632
	C14	C	0.000949	0.784855	0.394433
	C15	C	-0.031207	0.753270	0.358818
	C16	C	0.035525	0.755470	0.359174
	C17	C	0.035888	0.696094	0.395277
	C18	C	-0.003632	0.782604	0.421138
	C19	C	-0.056614	0.781080	0.356667
	C20	C	0.035004	0.752194	0.332268
	C21	C	0.037012	0.665520	0.409873
	C22	C	-0.005217	0.811634	0.436484
	C23	C	-0.086335	0.780359	0.340807
	C24	C	0.064735	0.754336	0.317780
	H25	H	-0.046408	0.670957	0.428568
	H26	H	0.007514	0.871361	0.390246
	H27	H	-0.071470	0.700332	0.318070
	H28	H	0.121331	0.770094	0.365816
	H29	H	-0.047858	0.724056	0.402811
	H30	H	0.009671	0.820367	0.363702
	H31	H	-0.019159	0.701760	0.346293
	H32	H	0.068646	0.766102	0.391340
	H33	H	0.059137	0.702299	0.385724
	H34	H	-0.005627	0.757811	0.430394
	H35	H	-0.053511	0.803849	0.367711
	H36	H	0.010904	0.748381	0.322135
	H37	H	0.060906	0.648824	0.411544
	H38	H	-0.008708	0.808975	0.457121
	H39	H	-0.104547	0.803004	0.339818
	H40	H	0.062586	0.752446	0.296975
	N41	N	0.010787	0.623854	0.436302
	N42	N	-0.003814	0.872506	0.442717
	N43	N	-0.121467	0.748508	0.309996
	N44	N	0.127249	0.762826	0.315786
	C45	C	0.319874	0.767015	0.208447
	C46	C	0.306839	0.734940	0.212358
	C47	C	0.276951	0.731738	0.226265
	C48	C	0.258668	0.760434	0.237032
	C49	C	0.271846	0.792535	0.233053
	C50	C	0.301660	0.795786	0.219039
	C51	C	0.226643	0.756920	0.251951
	C52	C	0.219361	0.776491	0.273948
	C53	C	0.189569	0.773009	0.287929
	C54	C	0.165488	0.749939	0.280507
	C55	C	0.172593	0.730362	0.258551
	C56	C	0.202467	0.733742	0.244657
	H57	H	0.184552	0.788199	0.304932
	H58	H	0.311122	0.820872	0.216188
	H59	H	0.154378	0.712372	0.252410
	H60	H	0.320625	0.712428	0.204338
	H61	H	0.237751	0.794091	0.280468
	H62	H	0.257994	0.815276	0.240650
	H63	H	0.267984	0.706481	0.229358
	H64	H	0.206944	0.718722	0.227517
	C65	C	0.351537	0.770373	0.193575
	H66	H	0.359496	0.796550	0.191335
	C67	C	0.133883	0.746084	0.295307
	H68	H	0.116594	0.727522	0.287785
	C69	C	0.678287	0.746504	0.202953
	C70	C	0.672744	0.756437	0.228494
	C71	C	0.700418	0.759821	0.245692
	C72	C	0.735014	0.753336	0.238227
	C73	C	0.740425	0.743284	0.212619
	C74	C	0.712759	0.740044	0.195369
	C75	C	0.764693	0.757211	0.256600
	C76	C	0.795005	0.734574	0.256666
	C77	C	0.822734	0.738319	0.273742
	C78	C	0.821600	0.764997	0.291499
	C79	C	0.791367	0.787604	0.291589
	C80	C	0.763586	0.783747	0.274586
	H81	H	0.845816	0.720485	0.273527
	H82	H	0.717731	0.732476	0.175708
	H83	H	0.789838	0.808428	0.305124
	H84	H	0.646260	0.761465	0.234689
	H85	H	0.796484	0.713350	0.243485
	H86	H	0.766778	0.738732	0.206086
	H87	H	0.695216	0.766933	0.265415
	H88	H	0.740851	0.802007	0.274759
	C89	C	0.648895	0.743429	0.184586
	H90	H	0.655949	0.735999	0.164970
	C91	C	0.851134	0.769190	0.309507
	H92	H	0.847651	0.791113	0.322346
	C93	C	0.012502	0.415775	0.531876
	C94	C	-0.015729	0.439947	0.535820
	C95	C	-0.019992	0.470804	0.521702
	C96	C	0.003751	0.479057	0.502916
	C97	C	0.032017	0.454718	0.499054
	C98	C	0.036283	0.423822	0.513147
	C99	C	-0.000953	0.512096	0.487701
	C100	C	0.027570	0.529624	0.480200
	C101	C	0.023125	0.560441	0.466025
	C102	C	-0.010064	0.575221	0.458562
	C103	C	-0.038642	0.557868	0.465981
	C104	C	-0.034171	0.527075	0.480180
	H105	H	0.045490	0.573620	0.460584
	H106	H	0.058213	0.405492	0.509624
	H107	H	-0.064562	0.568700	0.460399
	H108	H	-0.034322	0.434182	0.550260
	H109	H	0.053552	0.519320	0.486082
	H110	H	0.050443	0.459862	0.484356
	H111	H	-0.041706	0.489180	0.525659
	H112	H	-0.056738	0.513933	0.485120
	C113	C	0.016830	0.382850	0.546700
	H114	H	0.039712	0.365760	0.542078
	C115	C	-0.014885	0.608073	0.443677
	H116	H	-0.041935	0.617436	0.439068
	C117	C	-0.013445	1.070117	0.544247
	C118	C	0.000904	1.073615	0.519834
	C119	C	0.002025	1.046919	0.502418
	C120	C	-0.011145	1.015370	0.508534
	C121	C	-0.025485	1.012011	0.533052
	C122	C	-0.026663	1.038717	0.550472
	C123	C	-0.010137	0.986813	0.489793
	C124	C	-0.004701	0.952190	0.498071
	C125	C	-0.003927	0.925578	0.480587
	C126	C	-0.008669	0.932241	0.453949
	C127	C	-0.014006	0.966735	0.445547
	C128	C	-0.014725	0.993333	0.463044
	H129	H	0.000478	0.899072	0.487403
	H130	H	-0.038070	1.035432	0.569157
	H131	H	-0.017778	0.972577	0.425065
	H132	H	0.011324	1.097681	0.514729
	H133	H	-0.000262	0.946118	0.518464
	H134	H	-0.036553	0.988331	0.538234
	H135	H	0.013964	1.050279	0.483946
	H136	H	-0.019663	1.019667	0.455989
	C137	C	-0.014946	1.098596	0.562644
	H138	H	-0.026606	1.093201	0.581213
	C139	C	-0.007874	0.904010	0.435356
	H140	H	-0.011788	0.912049	0.414992
	C141	C	0.494162	0.745535	0.123869
	C142	C	0.398650	0.746372	0.169842
	C143	C	0.495438	0.839105	0.073556
	C144	C	0.494831	0.650185	0.078424
	C145	C	0.588685	0.747072	0.174462
	C146	C	0.405669	0.775307	0.154930
	C147	C	0.491446	0.806855	0.062984
	C148	C	0.524150	0.657502	0.093206
	C149	C	0.556114	0.743266	0.184921
	C150	C	0.435642	0.775397	0.140434
	C151	C	0.490686	0.777254	0.078500
	C152	C	0.524312	0.687484	0.107454
	C153	C	0.526245	0.742434	0.169294
	C154	C	0.460098	0.746789	0.139891
	C155	C	0.494254	0.778087	0.105462
	C156	C	0.495345	0.711608	0.107963
	C157	C	0.527108	0.745760	0.142334
	C158	C	0.452017	0.717438	0.153794
	C159	C	0.499559	0.810158	0.115886
	C160	C	0.465731	0.703458	0.093957
	C161	C	0.559501	0.750927	0.132025
	C162	C	0.422155	0.717129	0.168284
	C163	C	0.500258	0.839878	0.100514
	C164	C	0.465350	0.673572	0.079706
	C165	C	0.589509	0.751671	0.147513
	H166	H	0.387337	0.797894	0.154070
	H167	H	0.488677	0.805313	0.042156
	H168	H	0.546969	0.639358	0.094196
	H169	H	0.554541	0.740674	0.205741
	H170	H	0.439526	0.798127	0.128964
	H171	H	0.487700	0.753114	0.069213
	H172	H	0.547339	0.691550	0.118864
	H173	H	0.501876	0.739581	0.178515
	H174	H	0.469690	0.694382	0.153198
	H175	H	0.503452	0.811598	0.136635
	H176	H	0.442466	0.720999	0.094406
	H177	H	0.560954	0.754664	0.111286
	H178	H	0.416739	0.693983	0.178809
	H179	H	0.505366	0.863544	0.109813
	H180	H	0.441945	0.668012	0.069203
	H181	H	0.613461	0.756646	0.138357
	N182	N	0.368770	0.744300	0.184356
	N183	N	0.497045	0.867584	0.056800
	N184	N	0.492710	0.620030	0.064428
	N185	N	0.617422	0.748724	0.191322
	C186	C	-0.001667	0.246338	0.623709
	C187	C	-0.004169	0.155382	0.573642
	C188	C	0.095536	0.244943	0.671760
	C189	C	-0.096100	0.242414	0.670552
	C190	C	-0.002691	0.344218	0.578011
	C191	C	-0.007720	0.153045	0.600538
	C192	C	0.070885	0.273579	0.670233
	C193	C	-0.096807	0.239225	0.643614
	C194	C	0.026610	0.320305	0.579862
	C195	C	-0.006864	0.181993	0.615842
	C196	C	0.040574	0.273355	0.655003
	C197	C	-0.066879	0.240386	0.629288
	C198	C	0.026320	0.289822	0.594420
	C199	C	-0.001634	0.214591	0.605505
	C200	C	0.032576	0.244623	0.640927
	C201	C	-0.034554	0.245347	0.640868
	C202	C	-0.003120	0.280957	0.607438
	C203	C	0.002150	0.216695	0.578704
	C204	C	0.057255	0.216175	0.642474
	C205	C	-0.033797	0.247908	0.667822
	C206	C	-0.032118	0.305070	0.605761
	C207	C	0.001360	0.187877	0.563274
	C208	C	0.087657	0.216218	0.657613
	C209	C	-0.063687	0.246823	0.682321
	C210	C	-0.031998	0.335666	0.591336
	H211	H	-0.011081	0.128603	0.609938
	H212	H	0.075157	0.296757	0.680462
	H213	H	-0.121410	0.235651	0.633961
	H214	H	0.050383	0.325499	0.570566
	H215	H	-0.010294	0.179456	0.636488
	H216	H	0.022414	0.296131	0.653827
	H217	H	-0.068452	0.237483	0.608528
	H218	H	0.049568	0.272186	0.595842
	H219	H	0.005383	0.241213	0.569424
	H220	H	0.053155	0.193575	0.631491
	H221	H	-0.009370	0.250411	0.677934
	H222	H	-0.055280	0.300333	0.616014
	H223	H	0.004576	0.190366	0.542595
	H224	H	0.106133	0.193667	0.658483
	H225	H	-0.061100	0.248604	0.703089
	H226	H	-0.055011	0.353643	0.590263
	N227	N	-0.003830	0.127558	0.556966
	N228	N	0.126203	0.242453	0.686954
	N229	N	-0.127478	0.242407	0.683499
	N230	N	-0.005152	0.374847	0.563233
	C231	C	0.501539	0.414191	0.972530
	C232	C	0.523468	0.438697	0.964091
	C233	C	0.526307	0.469024	0.977312
	C234	C	0.507248	0.476417	0.999571
	C235	C	0.485301	0.451758	1.007947
	C236	C	0.482581	0.421339	0.994811
	C237	C	0.510256	0.508929	1.013748
	C238	C	0.481232	0.526614	1.024735
	C239	C	0.484029	0.556946	1.037957
	C240	C	0.516027	0.570993	1.040984
	C241	C	0.545085	0.553491	1.030031
	C242	C	0.542230	0.523247	1.016695
	H243	H	0.461272	0.570250	1.046178
	H244	H	0.465576	0.402746	1.001792
	H245	H	0.570102	0.563814	1.032105
	H246	H	0.538274	0.433596	0.946885
	H247	H	0.456021	0.516771	1.022367
	H248	H	0.470777	0.456327	1.025338
	H249	H	0.542984	0.487703	0.969995
	H250	H	0.565235	0.509956	1.008849
	C251	C	0.498676	0.381880	0.958603
	H252	H	0.481239	0.364167	0.966981
	C253	C	0.519047	0.603129	1.055101
	H254	H	0.545224	0.611898	1.056553
	C255	C	0.513176	1.070250	-0.042337
	C256	C	0.487728	1.072055	-0.023490
	C257	C	0.484114	1.044499	-0.006578
	C258	C	0.505717	1.013733	-0.007707
	C259	C	0.531136	1.012045	-0.026683
	C260	C	0.534850	1.039633	-0.043542
	C261	C	0.502092	0.984257	0.010541
	C262	C	0.507073	0.950022	0.002578
	C263	C	0.503979	0.922536	0.019662
	C264	C	0.495889	0.927907	0.045592
	C265	C	0.490705	0.962015	0.053630
	C266	C	0.493684	0.989491	0.036507
	H267	H	0.507844	0.896341	0.013084
	H268	H	0.554824	1.037637	-0.057853
	H269	H	0.484432	0.966859	0.073569
	H270	H	0.470714	1.095506	-0.022323
	H271	H	0.512772	0.944966	-0.017428
	H272	H	0.548700	0.988985	-0.027765
	H273	H	0.463763	1.046526	0.007433
	H274	H	0.490253	1.015526	0.043423
	C275	C	0.517385	1.099633	-0.060091
	H276	H	0.538222	1.095579	-0.073960
	C277	C	0.492940	0.898757	0.063834
	H278	H	0.486401	0.905791	0.083629
	C279	C	0.328395	0.239458	0.792631
	C280	C	0.315810	0.271696	0.782164
	C281	C	0.285068	0.275854	0.767429
	C282	C	0.265347	0.247990	0.762413
	C283	C	0.278146	0.215709	0.772912
	C284	C	0.308866	0.211532	0.787685
	C285	C	0.232199	0.252509	0.746818
	C286	C	0.222147	0.226921	0.730180
	C287	C	0.191181	0.231138	0.715710
	C288	C	0.168650	0.261115	0.717202
	C289	C	0.178570	0.286797	0.733707
	C290	C	0.209568	0.282578	0.748139
	H291	H	0.184038	0.211122	0.702915
	H292	H	0.317925	0.186384	0.795674
	H293	H	0.161614	0.310200	0.735235
	H294	H	0.330625	0.293544	0.785738
	H295	H	0.239238	0.203713	0.728161
	H296	H	0.263286	0.193775	0.769903
	H297	H	0.276504	0.300998	0.759214
	H298	H	0.216115	0.302580	0.761128
	C299	C	0.360745	0.235109	0.808620
	H300	H	0.368158	0.208929	0.816104
	C301	C	0.135778	0.265695	0.701808
	H302	H	0.120356	0.290227	0.704321
	C303	C	0.669075	0.251994	0.780128
	C304	C	0.700294	0.245253	0.794450
	C305	C	0.732242	0.244760	0.782655
	C306	C	0.734602	0.251001	0.755938
	C307	C	0.703199	0.257614	0.741662
	C308	C	0.671228	0.258152	0.753448
	C309	C	0.768877	0.250981	0.743341
	C310	C	0.773738	0.238915	0.718185
	C311	C	0.805638	0.239220	0.706393
	C312	C	0.834273	0.251676	0.719141
	C313	C	0.829665	0.263563	0.744306
	C314	C	0.797767	0.263207	0.756092
	H315	H	0.808805	0.229711	0.686999
	H316	H	0.647492	0.263604	0.741964
	H317	H	0.851366	0.273362	0.754570
	H318	H	0.699115	0.240339	0.815084
	H319	H	0.752361	0.228528	0.707938
	H320	H	0.703993	0.263232	0.721115
	H321	H	0.755797	0.238795	0.794249
	H322	H	0.794850	0.273323	0.775311
	C323	C	0.635166	0.253166	0.792743
	H324	H	0.612339	0.258921	0.779868
	C325	C	0.868112	0.252273	0.706595
	H326	H	0.888707	0.262535	0.718301
	C327	C	0.506626	0.251883	0.876913
	C328	C	0.501288	0.156422	0.924540
	C329	C	0.513445	0.344724	0.924450
	C330	C	0.409040	0.257292	0.829115
	C331	C	0.601570	0.249740	0.830164
	C332	C	0.473471	0.181904	0.922034
	C333	C	0.518956	0.345002	0.897796
	C334	C	0.431461	0.227084	0.831746
	C335	C	0.602467	0.253370	0.857058
	C336	C	0.475596	0.211615	0.906934
	C337	C	0.516667	0.315604	0.883233
	C338	C	0.462046	0.226054	0.846780
	C339	C	0.572387	0.254011	0.871365
	C340	C	0.505872	0.218197	0.894043
	C341	C	0.508336	0.284338	0.894273
	C342	C	0.472481	0.254976	0.859520
	C343	C	0.539766	0.250095	0.859860
	C344	C	0.533720	0.192837	0.896789
	C345	C	0.503329	0.284057	0.920981
	C346	C	0.450327	0.285184	0.856398
	C347	C	0.539020	0.245948	0.833045
	C348	C	0.531763	0.162942	0.911812
	C349	C	0.505463	0.313427	0.935703
	C350	C	0.419728	0.286440	0.841360
	C351	C	0.569047	0.245405	0.818546
	H352	H	0.449707	0.177780	0.931850
	H353	H	0.525305	0.368767	0.888587
	H354	H	0.425354	0.204061	0.821951
	H355	H	0.627253	0.256418	0.866621
	H356	H	0.453257	0.230350	0.905010
	H357	H	0.521475	0.316772	0.862718
	H358	H	0.478488	0.202171	0.848806
	H359	H	0.574049	0.257737	0.892032
	H360	H	0.557538	0.196123	0.886919
	H361	H	0.498110	0.260408	0.930769
	H362	H	0.456597	0.308239	0.866017
	H363	H	0.514515	0.243385	0.823055
	H364	H	0.554598	0.144910	0.913670
	H365	H	0.501924	0.311401	0.956331
	H366	H	0.403214	0.310281	0.839265
	H367	H	0.566736	0.241308	0.797997
	N368	N	0.497779	0.127589	0.940561
	N369	N	0.515014	0.375354	0.937931
	N370	N	0.378227	0.260418	0.814028
	N371	N	0.632914	0.248825	0.817108
