data_Molecule from CHK

_cell_length_a		39.980662
_cell_length_b		40.017781
_cell_length_c		46.966301
_cell_angle_alpha	87.528159
_cell_angle_beta	95.976738
_cell_angle_gamma	84.900586
_symmetry_space_group_name_H-M	'P 1'
_symmetry_Int_Tables_number		1

loop_
	_symmetry_equiv_pos_as_xyz
	x,y,z

loop_
	_atom_site_label
	_atom_site_type_symbol
	_atom_site_fract_x
	_atom_site_fract_y
	_atom_site_fract_z
	C0	C	0.014776	0.773027	0.374277
	C1	C	0.018070	0.682195	0.432513
	C2	C	0.014850	0.866964	0.421210
	C3	C	-0.079506	0.769859	0.315964
	C4	C	0.104974	0.772518	0.326569
	C5	C	-0.010881	0.704888	0.426951
	C6	C	0.019264	0.866456	0.392031
	C7	C	-0.055929	0.741739	0.321901
	C8	C	0.106562	0.778613	0.355801
	C9	C	-0.011251	0.733394	0.408698
	C10	C	0.019028	0.836648	0.377680
	C11	C	-0.026400	0.743359	0.340241
	C12	C	0.077912	0.778508	0.370412
	C13	C	0.017041	0.740790	0.395048
	C14	C	0.014672	0.805822	0.391605
	C15	C	-0.018892	0.772869	0.353708
	C16	C	0.046224	0.772602	0.356705
	C17	C	0.045520	0.717346	0.400032
	C18	C	0.011556	0.806388	0.421051
	C19	C	-0.043102	0.800593	0.348237
	C20	C	0.044647	0.767770	0.327215
	C21	C	0.046114	0.688747	0.418293
	C22	C	0.011692	0.836131	0.435566
	C23	C	-0.072720	0.799193	0.329885
	C24	C	0.073216	0.767777	0.312441
	H25	H	-0.033137	0.699908	0.437190
	H26	H	0.022839	0.889818	0.380681
	H27	H	-0.060996	0.718567	0.311847
	H28	H	0.130638	0.783405	0.366982
	H29	H	-0.034066	0.750439	0.404711
	H30	H	0.022451	0.837084	0.355073
	H31	H	-0.008624	0.721186	0.344465
	H32	H	0.079942	0.783278	0.393048
	H33	H	0.067705	0.721126	0.389401
	H34	H	0.009523	0.783226	0.433195
	H35	H	-0.039145	0.823740	0.358591
	H36	H	0.020677	0.764469	0.315245
	H37	H	0.068612	0.671220	0.421845
	H38	H	0.009712	0.835567	0.458424
	H39	H	-0.090881	0.821114	0.325995
	H40	H	0.070973	0.764461	0.289556
	N41	N	0.017909	0.652858	0.450077
	N42	N	0.015985	0.896906	0.435722
	N43	N	-0.109832	0.767866	0.298301
	N44	N	0.133709	0.773544	0.311784
	C45	C	0.321271	0.747341	0.206219
	C46	C	0.316175	0.719504	0.223908
	C47	C	0.288012	0.719421	0.239001
	C48	C	0.263599	0.747205	0.237224
	C49	C	0.268818	0.775023	0.219420
	C50	C	0.296908	0.775081	0.204231
	C51	C	0.233431	0.747187	0.253439
	C52	C	0.220274	0.776405	0.265557
	C53	C	0.192146	0.776423	0.280693
	C54	C	0.175670	0.747261	0.284350
	C55	C	0.188710	0.717996	0.272361
	C56	C	0.216927	0.717971	0.257317
	H57	H	0.182517	0.799207	0.289975
	H58	H	0.300186	0.796818	0.190581
	H59	H	0.176414	0.695148	0.274888
	H60	H	0.334791	0.697874	0.225707
	H61	H	0.232759	0.799214	0.263586
	H62	H	0.250131	0.796580	0.217063
	H63	H	0.285202	0.697773	0.252920
	H64	H	0.226028	0.695153	0.247829
	C65	C	0.351054	0.747442	0.190114
	H66	H	0.352862	0.770133	0.176521
	C67	C	0.145809	0.747283	0.300375
	H68	H	0.134269	0.723442	0.302012
	C69	C	0.671123	0.749755	0.208111
	C70	C	0.680074	0.730631	0.233957
	C71	C	0.710844	0.732952	0.250227
	C72	C	0.734229	0.754469	0.241446
	C73	C	0.725105	0.773594	0.215516
	C74	C	0.694293	0.771363	0.199268
	C75	C	0.767212	0.756980	0.258906
	C76	C	0.796799	0.761404	0.245953
	C77	C	0.827571	0.763667	0.262242
	C78	C	0.830267	0.761761	0.292301
	C79	C	0.800846	0.757320	0.305365
	C80	C	0.770101	0.754963	0.289055
	H81	H	0.850112	0.766900	0.251804
	H82	H	0.687884	0.786530	0.179448
	H83	H	0.802273	0.755806	0.328561
	H84	H	0.662474	0.713767	0.241081
	H85	H	0.795755	0.762328	0.222783
	H86	H	0.742203	0.790968	0.208395
	H87	H	0.717234	0.717306	0.269784
	H88	H	0.747695	0.752204	0.299769
	C89	C	0.638388	0.747524	0.190942
	H90	H	0.633344	0.763579	0.171094
	C91	C	0.862898	0.763996	0.309626
	H92	H	0.862721	0.762243	0.333034
	C93	C	0.006628	0.439864	0.540260
	C94	C	-0.013067	0.446589	0.513786
	C95	C	-0.011322	0.476077	0.497407
	C96	C	0.010143	0.500359	0.506708
	C97	C	0.029960	0.493400	0.533203
	C98	C	0.028308	0.463864	0.549562
	C99	C	0.011690	0.532147	0.489274
	C100	C	0.015811	0.562750	0.502263
	C101	C	0.016883	0.592479	0.486020
	C102	C	0.014069	0.593064	0.455975
	C103	C	0.010095	0.562587	0.442878
	C104	C	0.008924	0.532882	0.459142
	H105	H	0.019809	0.615843	0.496483
	H106	H	0.043927	0.459154	0.569868
	H107	H	0.007938	0.562374	0.419693
	H108	H	-0.029985	0.428319	0.506291
	H109	H	0.017354	0.563338	0.525404
	H110	H	0.047349	0.511203	0.540733
	H111	H	-0.027455	0.480798	0.477367
	H112	H	0.006441	0.509640	0.448426
	C113	C	0.004655	0.408677	0.557719
	H114	H	0.020993	0.405382	0.578154
	C115	C	0.014706	0.624654	0.438702
	H116	H	0.012216	0.622855	0.415298
	C117	C	-0.008907	1.092408	0.539195
	C118	C	-0.037576	1.085443	0.521388
	C119	C	-0.037871	1.056136	0.506479
	C120	C	-0.009486	1.032377	0.508578
	C121	C	0.019165	1.039480	0.526502
	C122	C	0.019447	1.068720	0.541493
	C123	C	-0.009712	1.000954	0.492596
	C124	C	0.019205	0.987361	0.480934
	C125	C	0.019085	0.957993	0.466115
	C126	C	-0.009911	0.940646	0.462341
	C127	C	-0.038879	0.954107	0.473876
	C128	C	-0.038769	0.983553	0.488610
	H129	H	0.041634	0.948047	0.457183
	H130	H	0.041842	1.073435	0.555245
	H131	H	-0.061596	0.941158	0.471250
	H132	H	-0.059689	1.103514	0.519348
	H133	H	0.041857	1.000446	0.482996
	H134	H	0.041239	1.021381	0.529121
	H135	H	-0.060200	1.051863	0.492459
	H136	H	-0.061326	0.992975	0.497763
	C137	C	-0.008541	1.123349	0.555175
	H138	H	0.014960	1.126666	0.568697
	C139	C	-0.010020	0.909466	0.446655
	H140	H	-0.033720	0.897359	0.444840
	C141	C	0.489465	0.726111	0.125507
	C142	C	0.401576	0.724098	0.175769
	C143	C	0.484520	0.818350	0.068717
	C144	C	0.486595	0.634499	0.075647
	C145	C	0.585787	0.727169	0.181555
	C146	C	0.398581	0.720230	0.146118
	C147	C	0.513390	0.795373	0.073038
	C148	C	0.484541	0.633512	0.105290
	C149	C	0.561725	0.755136	0.177569
	C150	C	0.426553	0.721102	0.130727
	C151	C	0.514306	0.766537	0.090992
	C152	C	0.485602	0.662633	0.120549
	C153	C	0.531585	0.754148	0.159883
	C154	C	0.458819	0.725817	0.143955
	C155	C	0.486743	0.759115	0.105612
	C156	C	0.488553	0.694146	0.107182
	C157	C	0.523847	0.725479	0.145233
	C158	C	0.461794	0.728147	0.173807
	C159	C	0.458413	0.782813	0.101873
	C160	C	0.489267	0.695038	0.077371
	C161	C	0.548511	0.698005	0.148704
	C162	C	0.433926	0.727320	0.189371
	C163	C	0.457268	0.811734	0.083904
	C164	C	0.488236	0.666012	0.061944
	C165	C	0.578740	0.698770	0.166394
	H166	H	0.374107	0.716218	0.135245
	H167	H	0.535011	0.800094	0.061836
	H168	H	0.481745	0.609718	0.116295
	H169	H	0.566645	0.777586	0.188800
	H170	H	0.423568	0.717766	0.107844
	H171	H	0.536887	0.749085	0.093804
	H172	H	0.483729	0.661181	0.143427
	H173	H	0.513351	0.776083	0.157272
	H174	H	0.486271	0.730222	0.185406
	H175	H	0.436835	0.779022	0.113306
	H176	H	0.490115	0.718761	0.065679
	H177	H	0.544458	0.675611	0.137245
	H178	H	0.437006	0.729062	0.212455
	H179	H	0.434993	0.829594	0.081368
	H180	H	0.488630	0.667499	0.038876
	H181	H	0.597358	0.677140	0.168689
	N182	N	0.373770	0.722590	0.191659
	N183	N	0.483657	0.847958	0.051310
	N184	N	0.484696	0.605637	0.059750
	N185	N	0.616761	0.728112	0.198550
	C186	C	-0.020453	0.263948	0.620802
	C187	C	-0.031860	0.174467	0.569288
	C188	C	0.076568	0.255709	0.677048
	C189	C	-0.109932	0.268616	0.669518
	C190	C	-0.016113	0.357305	0.567295
	C191	C	-0.034024	0.173331	0.598902
	C192	C	0.054910	0.285463	0.673660
	C193	C	-0.112705	0.265517	0.639794
	C194	C	0.010535	0.331721	0.570740
	C195	C	-0.030528	0.201849	0.614625
	C196	C	0.024532	0.287485	0.655828
	C197	C	-0.084185	0.263922	0.624952
	C198	C	0.008627	0.302587	0.587701
	C199	C	-0.023880	0.232638	0.601920
	C200	C	0.013764	0.259925	0.641033
	C201	C	-0.051628	0.266215	0.638730
	C202	C	-0.020058	0.297028	0.601508
	C203	C	-0.022009	0.233550	0.572249
	C204	C	0.035591	0.230267	0.644661
	C205	C	-0.049131	0.269329	0.668488
	C206	C	-0.046599	0.322729	0.597815
	C207	C	-0.025558	0.205137	0.556331
	C208	C	0.066037	0.228025	0.662461
	C209	C	-0.077550	0.270858	0.683525
	C210	C	-0.044896	0.351962	0.580881
	H211	H	-0.039123	0.149956	0.609406
	H212	H	0.062204	0.307111	0.685065
	H213	H	-0.137535	0.264035	0.628464
	H214	H	0.032878	0.334928	0.560051
	H215	H	-0.032993	0.200424	0.637406
	H216	H	0.008517	0.310978	0.653230
	H217	H	-0.087058	0.260916	0.602018
	H218	H	0.029820	0.283436	0.590372
	H219	H	-0.018131	0.256842	0.561076
	H220	H	0.029130	0.208434	0.633272
	H221	H	-0.024635	0.270332	0.680397
	H222	H	-0.069034	0.320325	0.608463
	H223	H	-0.023835	0.206559	0.533430
	H224	H	0.082234	0.204646	0.665089
	H225	H	-0.074832	0.273793	0.706465
	H226	H	-0.065975	0.371251	0.578185
	N227	N	-0.033902	0.145535	0.553447
	N228	N	0.106875	0.253020	0.695443
	N229	N	-0.138781	0.271175	0.684320
	N230	N	-0.015013	0.386482	0.549769
	C231	C	0.502737	0.401445	0.967627
	C232	C	0.533201	0.415433	0.975065
	C233	C	0.534108	0.444205	0.990645
	C234	C	0.504587	0.460474	0.999488
	C235	C	0.474130	0.446287	0.992021
	C236	C	0.473213	0.417445	0.976533
	C237	C	0.505486	0.491409	1.016081
	C238	C	0.479328	0.517613	1.011540
	C239	C	0.480158	0.546526	1.026927
	C240	C	0.507113	0.550620	1.047723
	C241	C	0.533317	0.524577	1.052349
	C242	C	0.532522	0.495710	1.036872
	H243	H	0.459795	0.566504	1.022965
	H244	H	0.449391	0.407007	0.971193
	H245	H	0.554408	0.527140	1.068320
	H246	H	0.556246	0.403384	0.968329
	H247	H	0.458438	0.515560	0.995250
	H248	H	0.451003	0.457744	0.999032
	H249	H	0.557964	0.454737	0.995531
	H250	H	0.552810	0.475750	1.041302
	C251	C	0.501701	0.370867	0.951205
	H252	H	0.476810	0.361423	0.946620
	C253	C	0.508044	0.581365	1.063948
	H254	H	0.530132	0.582598	1.079762
	C255	C	0.505352	1.055506	-0.044301
	C256	C	0.506055	1.055957	-0.014393
	C257	C	0.505194	1.026561	0.002357
	C258	C	0.503514	0.995259	-0.009969
	C259	C	0.502811	0.994968	-0.039970
	C260	C	0.503782	1.024336	-0.056731
	C261	C	0.502721	0.963689	0.007956
	C262	C	0.483397	0.937850	-0.001622
	C263	C	0.482798	0.908325	0.015016
	C264	C	0.501602	0.903106	0.042022
	C265	C	0.520817	0.928856	0.051770
	C266	C	0.521314	0.958424	0.035149
	H267	H	0.467633	0.888768	0.007240
	H268	H	0.503385	1.023312	-0.079785
	H269	H	0.535558	0.925421	0.072568
	H270	H	0.507228	1.079852	-0.004453
	H271	H	0.468102	0.941301	-0.022162
	H272	H	0.502246	0.971197	-0.050145
	H273	H	0.505110	1.027909	0.025342
	H274	H	0.536948	0.977559	0.043004
	C275	C	0.506572	1.086597	-0.062091
	H276	H	0.506359	1.083856	-0.085298
	C277	C	0.501188	0.871697	0.059595
	H278	H	0.516721	0.869649	0.080443
	C279	C	0.324238	0.252743	0.794693
	C280	C	0.322805	0.251440	0.764793
	C281	C	0.292029	0.253818	0.747662
	C282	C	0.261142	0.257544	0.759572
	C283	C	0.262741	0.258899	0.789562
	C284	C	0.293510	0.256630	0.806708
	C285	C	0.228141	0.259976	0.741207
	C286	C	0.200069	0.245387	0.750315
	C287	C	0.169343	0.247486	0.733133
	C288	C	0.165101	0.264413	0.706030
	C289	C	0.193009	0.279037	0.696810
	C290	C	0.223762	0.276834	0.713976
	H291	H	0.148085	0.235870	0.740518
	H292	H	0.293954	0.257878	0.829747
	H293	H	0.190363	0.292274	0.675959
	H294	H	0.346322	0.248404	0.755161
	H295	H	0.202651	0.231551	0.770892
	H296	H	0.239445	0.262480	0.799427
	H297	H	0.291859	0.252009	0.724695
	H298	H	0.244661	0.288931	0.706489
	C299	C	0.356856	0.250338	0.812885
	H300	H	0.355647	0.251896	0.836073
	C301	C	0.132607	0.266442	0.687690
	H302	H	0.131478	0.280198	0.666788
	C303	C	0.677513	0.253329	0.792646
	C304	C	0.688693	0.224102	0.779613
	C305	C	0.717117	0.222896	0.764782
	C306	C	0.735739	0.250877	0.762185
	C307	C	0.724435	0.280094	0.775338
	C308	C	0.696075	0.281292	0.790255
	C309	C	0.766166	0.249634	0.746220
	C310	C	0.773600	0.277642	0.729709
	C311	C	0.801901	0.276482	0.714731
	C312	C	0.824273	0.247297	0.715610
	C313	C	0.816994	0.219244	0.732029
	C314	C	0.788620	0.220398	0.746934
	H315	H	0.807038	0.298326	0.701997
	H316	H	0.688048	0.304111	0.800272
	H317	H	0.833911	0.196406	0.733059
	H318	H	0.674610	0.202276	0.781231
	H319	H	0.756501	0.300386	0.728100
	H320	H	0.738593	0.301906	0.774299
	H321	H	0.724639	0.200137	0.754473
	H322	H	0.784028	0.198533	0.759873
	C323	C	0.647478	0.254609	0.808512
	H324	H	0.640709	0.278414	0.818273
	C325	C	0.854197	0.246006	0.699604
	H326	H	0.870417	0.222179	0.701463
	C327	C	0.513150	0.236869	0.876261
	C328	C	0.509366	0.144131	0.930691
	C329	C	0.525576	0.326675	0.927182
	C330	C	0.415586	0.244630	0.820784
	C331	C	0.601776	0.231974	0.826497
	C332	C	0.482790	0.169741	0.927275
	C333	C	0.527489	0.327550	0.897553
	C334	C	0.437222	0.214897	0.824303
	C335	C	0.604983	0.235467	0.856208
	C336	C	0.484480	0.198648	0.909977
	C337	C	0.523593	0.298971	0.881983
	C338	C	0.467743	0.213009	0.841917
	C339	C	0.576731	0.237024	0.871387
	C340	C	0.512968	0.203982	0.895836
	C341	C	0.516855	0.268338	0.894911
	C342	C	0.478728	0.240752	0.856313
	C343	C	0.544046	0.234378	0.858017
	C344	C	0.539501	0.178269	0.899512
	C345	C	0.515216	0.267678	0.924610
	C346	C	0.456958	0.270446	0.852531
	C347	C	0.541149	0.230738	0.828325
	C348	C	0.537980	0.149214	0.916731
	C349	C	0.519104	0.296163	0.940363
	C350	C	0.426323	0.272533	0.834990
	C351	C	0.569302	0.229166	0.812966
	H352	H	0.460552	0.166492	0.938103
	H353	H	0.532530	0.350868	0.886914
	H354	H	0.429606	0.193097	0.813280
	H355	H	0.629873	0.237086	0.867363
	H356	H	0.463244	0.217748	0.907278
	H357	H	0.525814	0.300233	0.859159
	H358	H	0.483667	0.189467	0.844649
	H359	H	0.579903	0.240310	0.894274
	H360	H	0.561780	0.180573	0.888627
	H361	H	0.511291	0.244507	0.935948
	H362	H	0.463677	0.292445	0.863561
	H363	H	0.516554	0.229407	0.816689
	H364	H	0.559190	0.130080	0.919475
	H365	H	0.517717	0.294792	0.963310
	H366	H	0.410366	0.296050	0.832152
	H367	H	0.566326	0.226032	0.790052
	N368	N	0.507908	0.115374	0.948645
	N369	N	0.528160	0.355825	0.942647
	N370	N	0.385229	0.246650	0.802495
	N371	N	0.630043	0.229519	0.810968
