data_Molecule from CHK

_cell_length_a		33.493834
_cell_length_b		32.223065
_cell_length_c		7.415349
_cell_angle_alpha	83.439104
_cell_angle_beta	89.305109
_cell_angle_gamma	94.434796
_symmetry_space_group_name_H-M	'P 1'
_symmetry_Int_Tables_number		1

loop_
	_symmetry_equiv_pos_as_xyz
	x,y,z

loop_
	_atom_site_label
	_atom_site_type_symbol
	_atom_site_fract_x
	_atom_site_fract_y
	_atom_site_fract_z
	C0	C	-0.000036	0.766307	0.830787
	C1	C	-0.007579	0.648648	1.208497
	C2	C	0.003342	0.882055	1.103737
	C3	C	-0.108512	0.757183	0.496430
	C4	C	0.116348	0.773605	0.531137
	C5	C	0.005192	0.686923	1.269810
	C6	C	-0.031477	0.867354	1.020834
	C7	C	-0.071308	0.772063	0.415888
	C8	C	0.100299	0.736077	0.628942
	C9	C	0.007686	0.724291	1.152717
	C10	C	-0.032819	0.830663	0.937024
	C11	C	-0.036865	0.775695	0.519414
	C12	C	0.063140	0.733485	0.717964
	C13	C	-0.002956	0.725405	0.970195
	C14	C	0.000426	0.806880	0.930473
	C15	C	-0.037728	0.763903	0.707266
	C16	C	0.040173	0.768100	0.717000
	C17	C	-0.016860	0.686984	0.911799
	C18	C	0.035317	0.822193	1.012140
	C19	C	-0.075155	0.748849	0.786494
	C20	C	0.056353	0.805485	0.618046
	C21	C	-0.019484	0.649626	1.027509
	C22	C	0.036941	0.858927	1.095926
	C23	C	-0.109575	0.745095	0.684357
	C24	C	0.093558	0.808354	0.528279
	H25	H	0.013445	0.687174	1.410619
	H26	H	-0.057628	0.885165	1.022800
	H27	H	-0.069593	0.780800	0.270286
	H28	H	0.117552	0.708835	0.639057
	H29	H	0.018094	0.752976	1.205601
	H30	H	-0.060401	0.820972	0.874060
	H31	H	-0.008841	0.787478	0.451706
	H32	H	0.052674	0.703859	0.793197
	H33	H	-0.025510	0.686338	0.771629
	H34	H	0.061896	0.805106	1.007887
	H35	H	-0.077227	0.739681	0.931874
	H36	H	0.039750	0.833092	0.615278
	H37	H	-0.031073	0.620861	0.977368
	H38	H	0.064573	0.870304	1.154731
	H39	H	-0.137522	0.732135	0.750753
	H40	H	0.105760	0.837966	0.457163
	N41	N	-0.010369	0.610867	1.325409
	N42	N	0.004992	0.920244	1.178392
	N43	N	-0.142944	0.751725	0.392270
	N44	N	0.155410	0.777289	0.456850
	C45	C	0.290985	0.751206	0.188242
	C46	C	0.209583	0.751106	0.297481
	C47	C	0.262127	0.720643	0.139845
	C48	C	0.238467	0.781582	0.346405
	C49	C	0.222223	0.720533	0.193522
	C50	C	0.278368	0.781701	0.292680
	H51	H	0.300249	0.805444	0.331457
	H52	H	0.200358	0.696726	0.155142
	H53	H	0.228942	0.805068	0.427830
	H54	H	0.271671	0.697093	0.058808
	C55	C	0.333192	0.751953	0.127139
	H56	H	0.353485	0.777902	0.164475
	C57	C	0.167477	0.750061	0.360466
	H58	H	0.147194	0.724103	0.323157
	C59	C	0.713832	0.743124	0.162126
	C60	C	0.786620	0.758567	0.342187
	C61	C	0.715455	0.766796	0.310038
	C62	C	0.784948	0.734682	0.194966
	C63	C	0.751134	0.774337	0.398617
	C64	C	0.749260	0.727126	0.106418
	H65	H	0.748438	0.708702	-0.007127
	H66	H	0.751933	0.792701	0.512359
	H67	H	0.812205	0.722175	0.152031
	H68	H	0.688191	0.779259	0.353165
	C69	C	0.676178	0.735982	0.065055
	H70	H	0.677710	0.717693	-0.050847
	C71	C	0.824277	0.765904	0.438953
	H72	H	0.822609	0.783939	0.555640
	C73	C	-0.002647	0.458791	0.599681
	C74	C	0.003825	0.538273	0.390317
	C75	C	0.020015	0.465635	0.436881
	C76	C	-0.019057	0.531354	0.552487
	C77	C	0.023168	0.504608	0.333983
	C78	C	-0.022222	0.492374	0.655366
	H79	H	-0.039920	0.487517	0.780380
	H80	H	0.040816	0.509441	0.208826
	H81	H	-0.034263	0.557175	0.595616
	H82	H	0.035182	0.439803	0.393608
	C83	C	-0.005430	0.417694	0.711146
	H84	H	-0.023476	0.415270	0.837286
	C85	C	0.006887	0.579439	0.279407
	H86	H	0.024785	0.581754	0.152866
	C87	C	0.000436	1.036379	0.590274
	C88	C	0.000027	0.960399	0.431609
	C89	C	-0.005624	0.997401	0.697225
	C90	C	0.005942	0.999376	0.324553
	C91	C	-0.005810	0.960142	0.619615
	C92	C	0.006129	1.036643	0.402173
	H93	H	0.010577	1.066404	0.317474
	H94	H	-0.010340	0.930385	0.704301
	H95	H	0.010364	0.999932	0.179206
	H96	H	-0.010144	0.996826	0.842519
	C97	C	0.000819	1.075942	0.673137
	H98	H	0.006478	1.105144	0.581369
	C99	C	-0.000775	0.920798	0.348920
	H100	H	-0.006746	0.891672	0.440917
	C101	C	0.501681	0.733939	0.667480
	C102	C	0.384614	0.727829	0.960349
	C103	C	0.512040	0.850988	0.285566
	C104	C	0.497935	0.617620	0.398650
	C105	C	0.609122	0.745907	1.006597
	C106	C	0.400920	0.765063	0.861069
	C107	C	0.497161	0.813056	0.227099
	C108	C	0.532724	0.632250	0.481987
	C109	C	0.572161	0.729484	1.085295
	C110	C	0.438337	0.767328	0.774544
	C111	C	0.493977	0.775848	0.345271
	C112	C	0.534198	0.669154	0.564279
	C113	C	0.538016	0.725034	0.980392
	C114	C	0.461361	0.732671	0.779922
	C115	C	0.505207	0.774687	0.527059
	C116	C	0.501137	0.693265	0.568531
	C117	C	0.539210	0.736250	0.792144
	C118	C	0.444817	0.695522	0.879505
	C119	C	0.519327	0.813092	0.584950
	C120	C	0.466187	0.677866	0.487567
	C121	C	0.576732	0.751269	0.713848
	C122	C	0.407380	0.692999	0.967015
	C123	C	0.522777	0.850263	0.468040
	C124	C	0.464447	0.640957	0.405040
	C125	C	0.610805	0.756064	0.817448
	H126	H	0.383611	0.792268	0.847319
	H127	H	0.488223	0.812877	0.087135
	H128	H	0.558714	0.614156	0.481977
	H129	H	0.570242	0.720857	1.230944
	H130	H	0.448924	0.796664	0.697207
	H131	H	0.482488	0.747337	0.293908
	H132	H	0.561689	0.678697	0.628342
	H133	H	0.510013	0.712815	1.047188
	H134	H	0.461371	0.667837	0.884839
	H135	H	0.527691	0.813849	0.725428
	H136	H	0.439672	0.695075	0.490990
	H137	H	0.579134	0.759720	0.568059
	H138	H	0.394969	0.663586	1.039180
	H139	H	0.534435	0.879028	0.517992
	H140	H	0.436802	0.629601	0.346262
	H141	H	0.638850	0.768810	0.751357
	N142	N	0.345367	0.724465	1.032428
	N143	N	0.513750	0.888925	0.169979
	N144	N	0.496216	0.579319	0.324836
	N145	N	0.643576	0.750586	1.111127
	C146	C	0.000033	0.232841	0.171866
	C147	C	-0.003811	0.114267	-0.080185
	C148	C	0.107652	0.245755	0.509566
	C149	C	-0.118232	0.225823	0.454202
	C150	C	0.010336	0.348867	-0.216379
	C151	C	0.031468	0.130359	-0.005194
	C152	C	0.070814	0.229087	0.588783
	C153	C	-0.101465	0.263440	0.359699
	C154	C	-0.004433	0.310668	-0.272655
	C155	C	0.032947	0.167927	0.072103
	C156	C	0.036598	0.224460	0.484418
	C157	C	-0.063700	0.265982	0.276190
	C158	C	-0.007624	0.273778	-0.152432
	C159	C	-0.000302	0.191796	0.075465
	C160	C	0.037592	0.235676	0.296186
	C161	C	-0.040385	0.231518	0.283744
	C162	C	0.003215	0.273265	0.029643
	C163	C	-0.035199	0.175893	-0.004342
	C164	C	0.074995	0.251003	0.217421
	C165	C	-0.056696	0.194490	0.385077
	C166	C	0.017333	0.311916	0.085177
	C167	C	-0.036964	0.138290	-0.081658
	C168	C	0.109123	0.256025	0.320482
	C169	C	-0.094506	0.191671	0.469375
	C170	C	0.020886	0.348748	-0.033878
	H171	H	0.057660	0.112565	-0.005225
	H172	H	0.069071	0.220245	0.734324
	H173	H	-0.118903	0.290549	0.345044
	H174	H	-0.013201	0.310005	-0.412620
	H175	H	0.060642	0.178279	0.132436
	H176	H	0.008752	0.211797	0.551432
	H177	H	-0.052984	0.295420	0.200035
	H178	H	-0.019152	0.245062	-0.201947
	H179	H	-0.061703	0.193186	-0.003527
	H180	H	0.077288	0.259443	0.071611
	H181	H	-0.039722	0.167062	0.393803
	H182	H	0.025568	0.313151	0.225562
	H183	H	-0.064507	0.126692	-0.140556
	H184	H	0.137067	0.268962	0.253982
	H185	H	-0.106601	0.162412	0.543942
	H186	H	0.032531	0.377709	0.014422
	N187	N	-0.004976	0.076299	-0.156259
	N188	N	0.142247	0.250450	0.613309
	N189	N	-0.157071	0.222663	0.530393
	N190	N	0.012250	0.386480	-0.334216
	C191	C	0.499771	0.462983	-0.086652
	C192	C	0.500628	0.539024	0.071703
	C193	C	0.505370	0.501934	-0.194092
	C194	C	0.494792	0.500079	0.179046
	C195	C	0.505770	0.539225	-0.116650
	C196	C	0.494392	0.462778	0.101584
	H197	H	0.490054	0.433041	0.186537
	H198	H	0.509991	0.568956	-0.201703
	H199	H	0.490662	0.499574	0.324509
	H200	H	0.509414	0.502464	-0.339613
	C201	C	0.498984	0.423400	-0.169514
	H202	H	0.493440	0.394217	-0.077531
	C203	C	0.501438	0.578669	0.154021
	H204	H	0.506978	0.607766	0.061447
	C205	C	0.503090	1.040785	0.900638
	C206	C	0.497958	0.961026	1.107568
	C207	C	0.480167	1.033138	1.062594
	C208	C	0.520748	0.968627	0.945231
	C209	C	0.477666	0.994024	1.164305
	C210	C	0.523259	1.007740	0.843562
	H211	H	0.540960	1.013141	0.718596
	H212	H	0.459873	0.988580	1.289006
	H213	H	0.536488	0.943254	0.901210
	H214	H	0.464339	1.058482	1.106324
	C215	C	0.505160	1.081977	0.790124
	H216	H	0.523199	1.084881	0.663801
	C217	C	0.495603	0.919683	1.216972
	H218	H	0.477574	0.916694	1.343335
	C219	C	0.285760	0.257439	0.840364
	C220	C	0.212579	0.242670	0.662238
	C221	C	0.283628	0.233558	0.693169
	C222	C	0.214665	0.266374	0.810013
	C223	C	0.247757	0.226340	0.605577
	C224	C	0.250538	0.273592	0.897608
	H225	H	0.251686	0.291954	1.011366
	H226	H	0.246588	0.207885	0.492126
	H227	H	0.187604	0.279104	0.853861
	H228	H	0.310668	0.220746	0.649580
	C229	C	0.323587	0.264230	0.936618
	H230	H	0.322302	0.282374	1.053099
	C231	C	0.174728	0.235729	0.566361
	H232	H	0.175988	0.217411	0.450429
	C233	C	0.708344	0.249794	0.805714
	C234	C	0.789400	0.249407	0.691702
	C235	C	0.737684	0.279787	0.854932
	C236	C	0.760096	0.219296	0.643175
	C237	C	0.777411	0.279666	0.798905
	C238	C	0.720366	0.219423	0.699178
	H239	H	0.698156	0.195985	0.660492
	H240	H	0.799640	0.303040	0.837963
	H241	H	0.769147	0.195926	0.560013
	H242	H	0.728659	0.303090	0.938506
	C243	C	0.666421	0.249061	0.871012
	H244	H	0.645781	0.223312	0.834457
	C245	C	0.831386	0.249995	0.627514
	H246	H	0.852023	0.275703	0.664494
	C247	C	0.498314	0.266517	0.331012
	C248	C	0.390618	0.253953	-0.006358
	C249	C	0.616233	0.273242	0.045670
	C250	C	0.488314	0.150400	0.718627
	C251	C	0.502705	0.385067	0.583341
	C252	C	0.427489	0.270489	-0.085673
	C253	C	0.599390	0.235598	0.139689
	C254	C	0.503128	0.188579	0.774927
	C255	C	0.467356	0.369174	0.508251
	C256	C	0.461724	0.275033	0.018623
	C257	C	0.561766	0.233174	0.224471
	C258	C	0.506194	0.225500	0.654920
	C259	C	0.465695	0.331621	0.430778
	C260	C	0.460734	0.263803	0.206844
	C261	C	0.538725	0.267816	0.219096
	C262	C	0.495131	0.226074	0.473107
	C263	C	0.498804	0.307551	0.427566
	C264	C	0.423305	0.248616	0.285719
	C265	C	0.554993	0.304813	0.117403
	C266	C	0.480887	0.187455	0.417645
	C267	C	0.533779	0.323278	0.507330
	C268	C	0.389145	0.243713	0.182741
	C269	C	0.592672	0.307524	0.031976
	C270	C	0.477499	0.150579	0.536449
	C271	C	0.535734	0.360872	0.584701
	H272	H	0.429264	0.279190	-0.231301
	H273	H	0.616604	0.208321	0.152455
	H274	H	0.511962	0.189214	0.914817
	H275	H	0.441227	0.387050	0.508807
	H276	H	0.489633	0.287407	-0.048587
	H277	H	0.550884	0.203642	0.299359
	H278	H	0.517605	0.254230	0.704665
	H279	H	0.437904	0.321313	0.371117
	H280	H	0.421023	0.240180	0.431534
	H281	H	0.538137	0.332316	0.109609
	H282	H	0.472462	0.186267	0.277475
	H283	H	0.560197	0.305854	0.506441
	H284	H	0.361177	0.230879	0.249310
	H285	H	0.604795	0.336788	-0.042460
	H286	H	0.465823	0.121618	0.488240
	H287	H	0.563335	0.372328	0.643559
	N288	N	0.356019	0.249387	-0.110146
	N289	N	0.654963	0.276367	-0.031558
	N290	N	0.486786	0.112707	0.835898
	N291	N	0.504112	0.423029	0.659495
