data_Molecule from CHK

_cell_length_a		42.648421
_cell_length_b		42.635482
_cell_length_c		7.006470
_cell_angle_alpha	97.037838
_cell_angle_beta	83.876241
_cell_angle_gamma	83.774796
_symmetry_space_group_name_H-M	'P 1'
_symmetry_Int_Tables_number		1

loop_
	_symmetry_equiv_pos_as_xyz
	x,y,z

loop_
	_atom_site_label
	_atom_site_type_symbol
	_atom_site_fract_x
	_atom_site_fract_y
	_atom_site_fract_z
	C0	C	-0.005131	0.743906	0.871632
	C1	C	0.000702	0.651805	1.106492
	C2	C	-0.004183	0.834833	1.250786
	C3	C	-0.097870	0.749028	0.637849
	C4	C	0.084740	0.745313	0.493592
	C5	C	0.007085	0.679322	1.220349
	C6	C	-0.032434	0.826251	1.186048
	C7	C	-0.070827	0.755931	0.525439
	C8	C	0.076705	0.717025	0.557657
	C9	C	0.005756	0.708722	1.149564
	C10	C	-0.033191	0.796921	1.075063
	C11	C	-0.041215	0.754675	0.595602
	C12	C	0.047730	0.716116	0.668562
	C13	C	-0.002720	0.712180	0.964816
	C14	C	-0.005986	0.774599	1.023073
	C15	C	-0.037022	0.745673	0.777838
	C16	C	0.025192	0.743176	0.720854
	C17	C	-0.009781	0.684644	0.854427
	C18	C	0.021840	0.782850	1.095985
	C19	C	-0.064105	0.738206	0.886943
	C20	C	0.032898	0.771028	0.648821
	C21	C	-0.007891	0.655293	0.922202
	C22	C	0.022847	0.812313	1.205574
	C23	C	-0.093649	0.739952	0.819708
	C24	C	0.062018	0.772198	0.539455
	H25	H	0.014195	0.677519	1.362835
	H26	H	-0.053932	0.842945	1.221328
	H27	H	-0.073149	0.763432	0.384870
	H28	H	0.093535	0.695605	0.521890
	H29	H	0.011611	0.729238	1.239281
	H30	H	-0.055438	0.792186	1.023624
	H31	H	-0.021100	0.760963	0.507203
	H32	H	0.043475	0.693868	0.719659
	H33	H	-0.016533	0.686380	0.710995
	H34	H	0.043412	0.766277	1.059706
	H35	H	-0.061881	0.731233	1.028968
	H36	H	0.016191	0.792522	0.685664
	H37	H	-0.012990	0.634387	0.832697
	H38	H	0.045080	0.818712	1.250790
	H39	H	-0.114136	0.734365	0.907981
	H40	H	0.067996	0.794475	0.494916
	N41	N	0.001003	0.621586	1.165049
	N42	N	-0.002117	0.866068	1.338526
	N43	N	-0.128306	0.749381	0.580533
	N44	N	0.115659	0.747631	0.405953
	C45	C	0.336602	0.746545	0.080072
	C46	C	0.324391	0.757614	0.273354
	C47	C	0.292668	0.756400	0.340121
	C48	C	0.271615	0.744335	0.216339
	C49	C	0.283998	0.733210	0.022900
	C50	C	0.315750	0.734174	-0.043560
	C51	C	0.237589	0.743175	0.286961
	C52	C	0.213180	0.750943	0.174354
	C53	C	0.181420	0.749878	0.241115
	C54	C	0.172638	0.740698	0.422849
	C55	C	0.196935	0.732899	0.535691
	C56	C	0.228626	0.734208	0.469526
	H57	H	0.162852	0.756262	0.153460
	H58	H	0.324694	0.725400	-0.193421
	H59	H	0.190678	0.725738	0.676661
	H60	H	0.340184	0.767410	0.370088
	H61	H	0.219260	0.758691	0.034905
	H62	H	0.268503	0.723131	-0.074620
	H63	H	0.283710	0.765729	0.489184
	H64	H	0.246948	0.727573	0.558046
	C65	C	0.369999	0.748070	0.006131
	H66	H	0.377274	0.738104	-0.146620
	C67	C	0.139172	0.739550	0.496931
	H68	H	0.135230	0.731546	0.640137
	C69	C	0.671693	0.742455	0.150105
	C70	C	0.696018	0.749552	0.016724
	C71	C	0.727236	0.748322	0.058396
	C72	C	0.735573	0.740245	0.236417
	C73	C	0.711161	0.733151	0.369827
	C74	C	0.679947	0.734029	0.327298
	C75	C	0.768986	0.739455	0.281110
	C76	C	0.776061	0.752610	0.463043
	C77	C	0.807284	0.752362	0.503899
	C78	C	0.832932	0.738708	0.365493
	C79	C	0.825938	0.725263	0.184358
	C80	C	0.794708	0.725835	0.142695
	H81	H	0.812221	0.762954	0.644633
	H82	H	0.661669	0.728129	0.432025
	H83	H	0.845166	0.713959	0.076208
	H84	H	0.689995	0.756247	-0.120471
	H85	H	0.756736	0.763850	0.571095
	H86	H	0.717061	0.726216	0.506693
	H87	H	0.745470	0.754417	-0.045753
	H88	H	0.789915	0.714999	0.002233
	C89	C	0.638673	0.743618	0.102459
	H90	H	0.621249	0.736963	0.212176
	C91	C	0.865985	0.738439	0.411748
	H92	H	0.884959	0.727534	0.297151
	C93	C	-0.007356	0.423167	0.597895
	C94	C	-0.000816	0.448031	0.732986
	C95	C	-0.002362	0.479169	0.691240
	C96	C	-0.010131	0.486842	0.511267
	C97	C	-0.016808	0.461928	0.376476
	C98	C	-0.015679	0.430812	0.419198
	C99	C	-0.010873	0.520073	0.465387
	C100	C	0.003445	0.526523	0.286687
	C101	C	0.003349	0.557565	0.244582
	C102	C	-0.011373	0.583623	0.378166
	C103	C	-0.026077	0.577234	0.555706
	C104	C	-0.025598	0.546188	0.598945
	H105	H	0.014868	0.562037	0.106606
	H106	H	-0.021240	0.412131	0.313289
	H107	H	-0.038255	0.596792	0.659629
	H108	H	0.005741	0.442479	0.871455
	H109	H	0.015468	0.506862	0.182602
	H110	H	-0.023560	0.467368	0.238218
	H111	H	0.003276	0.497864	0.796703
	H112	H	-0.037302	0.541803	0.736588
	C113	C	-0.005551	0.390180	0.644647
	H114	H	-0.011775	0.372330	0.533284
	C115	C	-0.011445	0.616458	0.330359
	H116	H	-0.023528	0.635780	0.440168
	C117	C	-0.005023	1.087955	0.668679
	C118	C	0.007055	1.075353	0.477338
	C119	C	0.006140	1.043452	0.408520
	C120	C	-0.006578	1.022612	0.528431
	C121	C	-0.018772	1.035404	0.719797
	C122	C	-0.018133	1.067329	0.788137
	C123	C	-0.007273	0.988354	0.456401
	C124	C	0.000008	0.964343	0.571413
	C125	C	-0.000717	0.932355	0.504064
	C126	C	-0.009104	0.922937	0.319346
	C127	C	-0.016405	0.946833	0.204047
	C128	C	-0.015399	0.978760	0.270769
	H129	H	0.005293	0.914098	0.593641
	H130	H	-0.027688	1.076568	0.936430
	H131	H	-0.022931	0.940069	0.060712
	H132	H	0.017405	1.090977	0.383869
	H133	H	0.007112	0.970929	0.713398
	H134	H	-0.029385	1.020079	0.814092
	H135	H	0.016224	1.034181	0.261200
	H136	H	-0.021598	0.996773	0.180168
	C137	C	-0.003690	1.121477	0.745606
	H138	H	-0.014449	1.128966	0.896453
	C139	C	-0.009970	0.889204	0.245177
	H140	H	-0.017566	0.884695	0.100054
	C141	C	0.509999	0.761478	0.629970
	C142	C	0.420759	0.761534	1.017228
	C143	C	0.501972	0.852556	0.381317
	C144	C	0.508779	0.671709	0.239443
	C145	C	0.601609	0.753441	0.878986
	C146	C	0.429746	0.789876	0.959430
	C147	C	0.493506	0.824749	0.280844
	C148	C	0.537392	0.681010	0.293779
	C149	C	0.573959	0.745379	0.979438
	C150	C	0.458444	0.790227	0.843945
	C151	C	0.496112	0.795810	0.356374
	C152	C	0.538100	0.709839	0.410629
	C153	C	0.544868	0.747983	0.903769
	C154	C	0.479798	0.762529	0.782519
	C155	C	0.507591	0.792941	0.534132
	C156	C	0.510474	0.730963	0.477406
	C157	C	0.541677	0.759049	0.725899
	C158	C	0.471046	0.734460	0.847400
	C159	C	0.516657	0.820674	0.631751
	C160	C	0.482135	0.722044	0.414441
	C161	C	0.569262	0.767740	0.628436
	C162	C	0.442092	0.733782	0.959397
	C163	C	0.514224	0.849512	0.557122
	C164	C	0.481113	0.692941	0.301312
	C165	C	0.598259	0.765289	0.703090
	H166	H	0.413423	0.811567	1.000956
	H167	H	0.484233	0.825348	0.143525
	H168	H	0.559049	0.664821	0.248470
	H169	H	0.574777	0.736472	1.116966
	H170	H	0.463542	0.812515	0.796441
	H171	H	0.488850	0.775181	0.274879
	H172	H	0.560631	0.715173	0.455369
	H173	H	0.524368	0.741093	0.985527
	H174	H	0.486922	0.712506	0.804062
	H175	H	0.525722	0.819587	0.769905
	H176	H	0.460269	0.737891	0.460325
	H177	H	0.567929	0.776541	0.490396
	H178	H	0.435598	0.711474	1.000750
	H179	H	0.522062	0.870276	0.634661
	H180	H	0.458623	0.686282	0.261941
	H181	H	0.618920	0.772790	0.625512
	N182	N	0.389751	0.760705	1.108416
	N183	N	0.500311	0.882499	0.318659
	N184	N	0.507786	0.640559	0.146900
	N185	N	0.631669	0.751839	0.941884
	C186	C	0.011549	0.263008	0.122088
	C187	C	0.010794	0.171957	-0.254669
	C188	C	0.102248	0.257159	0.382020
	C189	C	-0.078698	0.262294	0.496323
	C190	C	0.005292	0.353522	-0.133396
	C191	C	0.039456	0.181889	-0.205639
	C192	C	0.074823	0.247741	0.477067
	C193	C	-0.069215	0.290947	0.446726
	C194	C	-0.004359	0.325981	-0.229777
	C195	C	0.040038	0.211132	-0.092892
	C196	C	0.045984	0.249799	0.398385
	C197	C	-0.040258	0.291528	0.334436
	C198	C	-0.002203	0.297196	-0.152431
	C199	C	0.012364	0.232395	-0.030296
	C200	C	0.043043	0.260765	0.219991
	C201	C	-0.018833	0.263888	0.272908
	C202	C	0.009110	0.294437	0.025903
	C203	C	-0.015813	0.223290	-0.094753
	C204	C	0.070647	0.269790	0.124760
	C205	C	-0.027528	0.235750	0.337171
	C206	C	0.018282	0.322179	0.122766
	C207	C	-0.016723	0.193770	-0.203504
	C208	C	0.099352	0.268050	0.202923
	C209	C	-0.056753	0.234832	0.445558
	C210	C	0.016464	0.350821	0.045844
	H211	H	0.061158	0.165690	-0.248825
	H212	H	0.075508	0.238685	0.614222
	H213	H	-0.085527	0.312619	0.489414
	H214	H	-0.013671	0.326533	-0.367000
	H215	H	0.062515	0.216791	-0.048798
	H216	H	0.025515	0.242465	0.477966
	H217	H	-0.034924	0.313958	0.290048
	H218	H	-0.009737	0.276622	-0.232888
	H219	H	-0.037670	0.239311	-0.053071
	H220	H	0.069548	0.278338	-0.014166
	H221	H	-0.011407	0.213917	0.295800
	H222	H	0.027028	0.321239	0.261932
	H223	H	-0.039057	0.187128	-0.245698
	H224	H	0.120078	0.275600	0.126338
	H225	H	-0.063052	0.212526	0.488021
	H226	H	0.024208	0.371633	0.123445
	N227	N	0.010061	0.140975	-0.350455
	N228	N	0.132395	0.254717	0.443829
	N229	N	-0.109330	0.261490	0.592759
	N230	N	0.002899	0.383607	-0.194319
	C231	C	0.490120	0.422342	-0.179658
	C232	C	0.499137	0.431569	0.003667
	C233	C	0.499649	0.463546	0.072476
	C234	C	0.491424	0.487734	-0.039482
	C235	C	0.482391	0.478342	-0.223034
	C236	C	0.481622	0.446438	-0.291205
	C237	C	0.492110	0.521988	0.032723
	C238	C	0.503878	0.542995	-0.089417
	C239	C	0.504770	0.574922	-0.021390
	C240	C	0.493583	0.587411	0.171426
	C241	C	0.481649	0.566567	0.293646
	C242	C	0.481022	0.534605	0.225970
	H243	H	0.514368	0.590670	-0.116801
	H244	H	0.474425	0.439852	-0.432993
	H245	H	0.472935	0.575692	0.443363
	H246	H	0.505905	0.413171	0.090718
	H247	H	0.513246	0.533840	-0.238107
	H248	H	0.475301	0.496491	-0.310808
	H249	H	0.507338	0.469982	0.213014
	H250	H	0.471267	0.519116	0.322357
	C251	C	0.489478	0.388665	-0.255939
	H252	H	0.481366	0.384420	-0.399823
	C253	C	0.495060	0.620965	0.247082
	H254	H	0.485317	0.628388	0.399788
	C255	C	0.488656	1.082281	0.888456
	C256	C	0.503314	1.056196	0.754868
	C257	C	0.503296	1.025157	0.796962
	C258	C	0.488851	1.018747	0.975441
	C259	C	0.474137	1.044889	1.108824
	C260	C	0.473756	1.075921	1.065564
	C261	C	0.489261	0.985545	1.021390
	C262	C	0.496955	0.977794	1.201346
	C263	C	0.497954	0.946720	1.243782
	C264	C	0.490856	0.922018	1.109596
	C265	C	0.482883	0.929698	0.930258
	C266	C	0.482304	0.960745	0.886831
	H267	H	0.504419	0.941107	1.382320
	H268	H	0.461521	1.095493	1.169188
	H269	H	0.477058	0.911119	0.824656
	H270	H	0.514867	1.060649	0.616934
	H271	H	0.502918	0.996378	1.306329
	H272	H	0.462312	1.040528	1.246193
	H273	H	0.515268	1.005462	0.692929
	H274	H	0.475724	0.966242	0.748315
	C275	C	0.488247	1.115086	0.839866
	H276	H	0.475871	1.134354	0.949067
	C277	C	0.492031	0.889109	1.157323
	H278	H	0.485663	0.871336	1.046033
	C279	C	0.333885	0.237201	0.863575
	C280	C	0.308484	0.251224	1.002743
	C281	C	0.277174	0.252169	0.962637
	C282	C	0.269767	0.239311	0.780896
	C283	C	0.295234	0.225164	0.642116
	C284	C	0.326537	0.223902	0.683003
	C285	C	0.236290	0.240772	0.736765
	C286	C	0.228117	0.249030	0.558784
	C287	C	0.196862	0.250896	0.517441
	C288	C	0.172333	0.244223	0.650977
	C289	C	0.180388	0.235790	0.828566
	C290	C	0.211650	0.234270	0.870748
	H291	H	0.190977	0.257729	0.380288
	H292	H	0.345543	0.212200	0.574585
	H293	H	0.161925	0.230339	0.933752
	H294	H	0.313691	0.261581	1.143366
	H295	H	0.246526	0.254765	0.454397
	H296	H	0.290167	0.214458	0.501991
	H297	H	0.258059	0.263722	1.071167
	H298	H	0.217388	0.227285	1.007802
	C299	C	0.367017	0.235924	0.909344
	H300	H	0.385768	0.224670	0.794274
	C301	C	0.139229	0.246328	0.604348
	H302	H	0.121571	0.240255	0.714878
	C303	C	0.674542	0.240559	0.936964
	C304	C	0.682941	0.248842	0.752345
	C305	C	0.714591	0.249781	0.682519
	C306	C	0.739260	0.242742	0.794668
	C307	C	0.730700	0.234562	0.979825
	C308	C	0.699118	0.233338	1.048988
	C309	C	0.773161	0.243691	0.720343
	C310	C	0.794341	0.256907	0.838935
	C311	C	0.825911	0.258050	0.768233
	C312	C	0.837853	0.245646	0.576367
	C313	C	0.816842	0.232219	0.457850
	C314	C	0.785235	0.231361	0.528075
	H315	H	0.841796	0.268776	0.860746
	H316	H	0.693154	0.226754	1.191829
	H317	H	0.825540	0.222543	0.308928
	H318	H	0.664159	0.254655	0.665004
	H319	H	0.785577	0.267186	0.986761
	H320	H	0.749259	0.228490	1.067969
	H321	H	0.720398	0.256862	0.540881
	H322	H	0.769609	0.220458	0.434648
	C323	C	0.641214	0.239311	1.013558
	H324	H	0.637573	0.231717	1.158072
	C325	C	0.870971	0.247357	0.497391
	H326	H	0.878046	0.236200	0.346586
	C327	C	0.495718	0.242172	0.375766
	C328	C	0.499589	0.150640	0.616703
	C329	C	0.496487	0.334196	0.741697
	C330	C	0.403671	0.245004	0.133861
	C331	C	0.586772	0.244610	0.014406
	C332	C	0.507136	0.177932	0.727455
	C333	C	0.468099	0.325088	0.681797
	C334	C	0.430447	0.253301	0.025556
	C335	C	0.578643	0.216066	0.074300
	C336	C	0.506281	0.207192	0.655162
	C337	C	0.467382	0.295404	0.574818
	C338	C	0.459897	0.252561	0.097604
	C339	C	0.549290	0.214786	0.179980
	C340	C	0.498025	0.210530	0.469806
	C341	C	0.494576	0.272979	0.526734
	C342	C	0.463961	0.243738	0.280415
	C343	C	0.526224	0.241513	0.226644
	C344	C	0.491256	0.182895	0.359088
	C345	C	0.522235	0.281393	0.601169
	C346	C	0.436895	0.235954	0.388156
	C347	C	0.533718	0.269298	0.152894
	C348	C	0.492493	0.153715	0.428876
	C349	C	0.523190	0.311194	0.706924
	C350	C	0.407558	0.236963	0.318434
	C351	C	0.563173	0.270819	0.048341
	H352	H	0.514280	0.176155	0.869883
	H353	H	0.446594	0.341805	0.714559
	H354	H	0.428123	0.260999	-0.114514
	H355	H	0.595860	0.194904	0.042403
	H356	H	0.512473	0.227648	0.743831
	H357	H	0.445193	0.290436	0.523375
	H358	H	0.479900	0.259393	0.010908
	H359	H	0.545113	0.192552	0.231565
	H360	H	0.485092	0.184462	0.214235
	H361	H	0.543747	0.264675	0.568871
	H362	H	0.438960	0.229290	0.531048
	H363	H	0.516559	0.290508	0.184866
	H364	H	0.487784	0.132695	0.338814
	H365	H	0.545240	0.317563	0.755144
	H366	H	0.387032	0.231356	0.406239
	H367	H	0.568795	0.292978	0.000383
	N368	N	0.500640	0.120314	0.674583
	N369	N	0.498172	0.365268	0.833399
	N370	N	0.373070	0.246426	0.078170
	N371	N	0.617457	0.246899	-0.076665
