data_Molecule from CHK

_cell_length_a		26.045646
_cell_length_b		26.618543
_cell_length_c		11.328745
_cell_angle_alpha	91.561644
_cell_angle_beta	91.308650
_cell_angle_gamma	87.831936
_symmetry_space_group_name_H-M	'P 1'
_symmetry_Int_Tables_number		1

loop_
	_symmetry_equiv_pos_as_xyz
	x,y,z

loop_
	_atom_site_label
	_atom_site_type_symbol
	_atom_site_fract_x
	_atom_site_fract_y
	_atom_site_fract_z
	C0	C	-0.178683	0.753034	-0.188056
	C1	C	0.015474	0.563275	0.421297
	C2	C	-0.004606	0.940310	0.427227
	C3	C	0.202585	0.738850	-0.140644
	C4	C	-0.182447	0.755267	-0.065428
	C5	C	0.051968	0.599998	0.437491
	C6	C	-0.003740	0.940603	0.304251
	C7	C	0.169338	0.699060	-0.143846
	C8	C	-0.138033	0.753235	0.006221
	C9	C	0.048326	0.644001	0.372643
	C10	C	-0.000082	0.895289	0.238992
	C11	C	0.123512	0.703181	-0.081851
	C12	C	-0.088458	0.749780	-0.040066
	C13	C	0.008692	0.653197	0.289133
	C14	C	0.002136	0.848175	0.292072
	C15	C	0.109861	0.746001	-0.012606
	C16	C	-0.085815	0.747732	-0.163609
	C17	C	-0.027820	0.615887	0.275958
	C18	C	0.000984	0.849022	0.415776
	C19	C	0.144145	0.785472	-0.012025
	C20	C	-0.129876	0.749134	-0.236495
	C21	C	-0.024717	0.571650	0.340008
	C22	C	-0.002164	0.894010	0.482369
	C23	C	0.189508	0.782528	-0.075863
	H24	H	-0.219460	0.759733	-0.024823
	H25	H	0.083325	0.593350	0.499903
	H26	H	-0.007038	0.975628	0.258463
	H27	H	0.179962	0.665507	-0.194747
	H28	H	-0.142208	0.754870	0.101217
	H29	H	0.077494	0.671670	0.386195
	H30	H	0.000630	0.896777	0.143555
	H31	H	0.097943	0.671993	-0.086471
	H32	H	-0.048775	0.745040	-0.205092
	H33	H	-0.059552	0.620562	0.213406
	H34	H	0.002486	0.814045	0.462392
	H35	H	0.135621	0.819762	0.038378
	H36	H	-0.126850	0.747545	-0.331532
	H37	H	-0.052901	0.543440	0.323710
	H38	H	-0.003059	0.893631	0.577685
	H39	H	0.215103	0.813540	-0.074912
	N40	N	-0.223746	0.755641	-0.269289
	N41	N	0.021692	0.516709	0.488696
	N42	N	-0.009134	0.986452	0.502105
	N43	N	0.250591	0.734540	-0.205767
	O44	O	-0.217432	0.771812	-0.372072
	O45	O	-0.028309	0.982945	0.603389
	O46	O	0.280991	0.696990	-0.189762
	O47	O	0.066951	0.499750	0.510351
	C48	C	0.004984	0.798848	0.214785
	C49	C	0.054861	0.796038	0.141439
	C50	C	0.059569	0.748126	0.059544
	H51	H	0.055325	0.829358	0.087320
	H52	H	0.087963	0.797289	0.202537
	C53	C	0.057659	0.701602	0.139397
	C54	C	0.007778	0.700949	0.212302
	H55	H	0.060188	0.666766	0.086217
	H56	H	0.091556	0.701199	0.198129
	C57	C	0.004681	0.750314	0.289300
	H58	H	-0.030374	0.750402	0.340702
	H59	H	0.037296	0.750429	0.351649
	C60	C	-0.041554	0.797232	0.126395
	C61	C	0.011230	0.748274	-0.023915
	C62	C	-0.040301	0.749480	0.044010
	H63	H	0.012205	0.781034	-0.079982
	H64	H	0.013326	0.714724	-0.081627
	C65	C	-0.038817	0.702663	0.123311
	H66	H	-0.076729	0.799496	0.177382
	H67	H	-0.042909	0.830220	0.070872
	H68	H	-0.074381	0.702464	0.172638
	H69	H	-0.037606	0.669088	0.065396
	C70	C	0.306596	0.765431	0.649412
	C71	C	0.686746	0.742252	0.681849
	C72	C	0.494785	0.934073	0.065541
	C73	C	0.504531	0.564742	0.059422
	C74	C	0.354093	0.759166	0.707390
	C75	C	0.677875	0.783266	0.609125
	C76	C	0.498234	0.886094	0.013123
	C77	C	0.461846	0.575870	0.128901
	C78	C	0.399208	0.756109	0.642596
	C79	C	0.634121	0.785973	0.535352
	C80	C	0.499818	0.843405	0.082309
	C81	C	0.460118	0.619121	0.201745
	C82	C	0.398714	0.758082	0.518867
	C83	C	0.597015	0.749082	0.533077
	C84	C	0.498415	0.846587	0.206028
	C85	C	0.499710	0.653447	0.205973
	C86	C	0.350126	0.763408	0.463234
	C87	C	0.606019	0.709274	0.610550
	C88	C	0.495511	0.895304	0.256494
	C89	C	0.541265	0.642180	0.131774
	C90	C	0.304712	0.767583	0.526708
	C91	C	0.649754	0.705800	0.684119
	C92	C	0.493333	0.938428	0.188428
	C93	C	0.543807	0.598882	0.059311
	H94	H	0.355519	0.757283	0.802519
	H95	H	0.704628	0.813277	0.609989
	H96	H	0.499343	0.882587	-0.082075
	H97	H	0.429813	0.551258	0.126057
	H98	H	0.435374	0.751698	0.690744
	H99	H	0.629234	0.818046	0.478977
	H100	H	0.502208	0.807034	0.037398
	H101	H	0.426660	0.625883	0.255610
	H102	H	0.347689	0.764660	0.367776
	H103	H	0.578216	0.680082	0.613337
	H104	H	0.494423	0.899736	0.351791
	H105	H	0.572567	0.667825	0.130622
	H106	H	0.267663	0.772469	0.482839
	H107	H	0.655888	0.674721	0.742888
	H108	H	0.489335	0.974894	0.231844
	H109	H	0.576240	0.590902	0.003074
	N110	N	0.258690	0.769485	0.715152
	N111	N	0.731477	0.738221	0.763659
	N112	N	0.492060	0.977467	-0.012809
	N113	N	0.507774	0.520229	-0.020573
	O114	O	0.225423	0.803704	0.690182
	O115	O	0.474391	0.970609	-0.117068
	O116	O	0.532014	0.523296	-0.115649
	O117	O	0.725977	0.716834	0.860871
	C118	C	0.498614	0.799545	0.284783
	C119	C	0.498633	0.749542	0.209936
	C120	C	0.498661	0.701857	0.286186
	H121	H	0.464798	0.749247	0.150922
	H122	H	0.532628	0.747410	0.155000
	C123	C	0.546859	0.702626	0.369832
	C124	C	0.548450	0.750920	0.450272
	H125	H	0.547245	0.669032	0.423287
	H126	H	0.582034	0.699994	0.318854
	C127	C	0.546869	0.797143	0.368195
	H128	H	0.547442	0.831632	0.422699
	H129	H	0.581098	0.795984	0.313814
	C130	C	0.450284	0.801080	0.363250
	C131	C	0.450140	0.706602	0.364508
	C132	C	0.448412	0.755027	0.444653
	H133	H	0.415698	0.706697	0.307593
	H134	H	0.448938	0.673985	0.420993
	C135	C	0.498420	0.754025	0.523171
	H136	H	0.448897	0.835227	0.419083
	H137	H	0.416304	0.803236	0.304992
	H138	H	0.499082	0.787795	0.580351
	H139	H	0.498367	0.721536	0.580048
	C140	C	-0.013778	0.446808	0.588940
	C141	C	0.003681	0.074920	0.542168
	C142	C	-0.198234	0.264113	1.155587
	C143	C	0.174966	0.243098	1.195367
	C144	C	-0.051657	0.411383	0.573950
	C145	C	-0.039728	0.084818	0.609958
	C146	C	-0.162334	0.301606	1.166034
	C147	C	0.166969	0.285180	1.125666
	C148	C	-0.048671	0.366903	0.636935
	C149	C	-0.043086	0.127810	0.683471
	C150	C	-0.118226	0.298768	1.097936
	C151	C	0.124376	0.288729	1.048622
	C152	C	-0.008654	0.356146	0.718422
	C153	C	-0.004034	0.162720	0.691969
	C154	C	-0.108553	0.259399	1.015577
	C155	C	0.088060	0.251161	1.038433
	C156	C	0.028454	0.392824	0.733110
	C157	C	0.038508	0.152502	0.620148
	C158	C	-0.146024	0.222934	1.004749
	C159	C	0.096658	0.209685	1.111192
	C160	C	0.025971	0.437596	0.670925
	C161	C	0.042665	0.109456	0.546853
	C162	C	-0.190351	0.225157	1.072431
	C163	C	0.139235	0.205388	1.188180
	H164	H	-0.083284	0.419122	0.512915
	H165	H	-0.071188	0.059523	0.604850
	H166	H	-0.169339	0.332601	1.227881
	H167	H	0.193347	0.315508	1.132330
	H168	H	-0.078562	0.339992	0.623216
	H169	H	-0.077301	0.133615	0.735187
	H170	H	-0.090688	0.328142	1.108624
	H171	H	0.119895	0.321918	0.995816
	H172	H	0.060155	0.387082	0.795252
	H173	H	0.069440	0.178648	0.622369
	H174	H	-0.141115	0.191854	0.941980
	H175	H	0.069446	0.179841	1.107279
	H176	H	0.054587	0.465306	0.688050
	H177	H	0.076075	0.102080	0.493325
	H178	H	-0.218749	0.196911	1.059464
	H179	H	0.145217	0.172991	1.242996
	N180	N	-0.019945	0.494094	0.524250
	N181	N	0.009688	0.029329	0.466021
	N182	N	-0.244974	0.269519	1.226206
	N183	N	0.219706	0.237471	1.276566
	O184	O	-0.065162	0.511308	0.503313
	O185	O	-0.264081	0.313367	1.245606
	O186	O	0.214427	0.214215	1.371343
	O187	O	0.034117	0.032276	0.371217
	C188	C	-0.059003	0.258053	0.941049
	C189	C	-0.010206	0.255127	1.022763
	C190	C	0.040506	0.254384	0.952740
	H191	H	-0.010184	0.287087	1.085430
	H192	H	-0.011617	0.221446	1.075580
	C193	C	0.040678	0.208535	0.864629
	C194	C	-0.006321	0.209678	0.777182
	H195	H	0.076530	0.207790	0.816170
	H196	H	0.040774	0.173420	0.912506
	C197	C	-0.055651	0.211980	0.853240
	H198	H	-0.089331	0.213671	0.793874
	H199	H	-0.056331	0.177584	0.903763
	C200	C	-0.057106	0.306039	0.866179
	C201	C	0.039097	0.302764	0.877739
	C202	C	-0.008010	0.307097	0.790574
	H203	H	0.037986	0.335548	0.938031
	H204	H	0.074265	0.302960	0.826824
	C205	C	-0.006064	0.259376	0.707851
	H206	H	-0.091588	0.308173	0.809417
	H207	H	-0.058590	0.339769	0.923425
	H208	H	-0.038815	0.260083	0.645780
	H209	H	0.028366	0.260039	0.654544
	C210	C	0.310195	0.250026	0.322913
	C211	C	0.505271	0.064582	0.945731
	C212	C	0.491316	0.432217	0.936589
	C213	C	0.688565	0.234016	0.340506
	C214	C	0.307262	0.251238	0.445727
	C215	C	0.544406	0.098917	0.949506
	C216	C	0.490933	0.433811	0.813607
	C217	C	0.652904	0.196229	0.333254
	C218	C	0.352167	0.248415	0.515707
	C219	C	0.542091	0.139979	0.875126
	C220	C	0.493670	0.389154	0.745730
	C221	C	0.609136	0.199473	0.402574
	C222	C	0.401373	0.244987	0.467454
	C223	C	0.501284	0.148388	0.794066
	C224	C	0.496196	0.341583	0.796410
	C225	C	0.599529	0.239640	0.482883
	C226	C	0.403116	0.243714	0.343759
	C227	C	0.462432	0.113292	0.792433
	C228	C	0.496262	0.341171	0.920214
	C229	C	0.636817	0.276342	0.490633
	C230	C	0.358603	0.246068	0.272559
	C231	C	0.463948	0.072211	0.866941
	C232	C	0.494052	0.385436	0.989320
	C233	C	0.680834	0.273632	0.422012
	H234	H	0.270519	0.255594	0.487626
	H235	H	0.576309	0.093049	1.010873
	H236	H	0.487459	0.469358	0.770035
	H237	H	0.659806	0.164634	0.273033
	H238	H	0.348746	0.249488	0.610903
	H239	H	0.572978	0.166144	0.880110
	H240	H	0.493463	0.391460	0.650363
	H241	H	0.581888	0.169733	0.394539
	H242	H	0.439794	0.241069	0.300669
	H243	H	0.429798	0.117705	0.732277
	H244	H	0.498037	0.305806	0.965197
	H245	H	0.632150	0.307988	0.551940
	H246	H	0.360995	0.245323	0.177401
	H247	H	0.432523	0.046869	0.864556
	H248	H	0.494183	0.384151	1.084610
	H249	H	0.709087	0.302106	0.433295
	N250	N	0.264757	0.254122	0.243206
	N251	N	0.509116	0.021791	1.025656
	N252	N	0.488333	0.477493	1.014282
	N253	N	0.735050	0.228446	0.268932
	O254	O	0.270803	0.271393	0.141341
	O255	O	0.469817	0.473385	1.116050
	O256	O	0.754052	0.184596	0.249043
	O257	O	0.532113	0.027843	1.124520
	C258	C	0.497900	0.292843	0.717288
	C259	C	0.547028	0.289678	0.641455
	C260	C	0.550301	0.241918	0.558603
	H261	H	0.547743	0.323140	0.587796
	H262	H	0.580527	0.290176	0.701462
	C263	C	0.548915	0.195078	0.637554
	C264	C	0.500034	0.195027	0.714011
	H265	H	0.550431	0.160503	0.583200
	H266	H	0.583616	0.194094	0.693652
	C267	C	0.498196	0.244311	0.791138
	H268	H	0.463767	0.244502	0.844748
	H269	H	0.531535	0.244091	0.851443
	C270	C	0.450350	0.291803	0.631795
	C271	C	0.500974	0.242812	0.478281
	C272	C	0.450286	0.244121	0.549165
	H273	H	0.501620	0.275766	0.422753
	H274	H	0.501909	0.209446	0.419935
	C275	C	0.452283	0.197166	0.628368
	H276	H	0.415750	0.294289	0.684772
	H277	H	0.448739	0.324898	0.576590
	H278	H	0.417377	0.197557	0.680127
	H279	H	0.452331	0.163432	0.570984
