data_Molecule from CHK

_cell_length_a		19.780993
_cell_length_b		19.994788
_cell_length_c		4.348746
_cell_angle_alpha	89.990407
_cell_angle_beta	90.019092
_cell_angle_gamma	96.135173
_symmetry_space_group_name_H-M	'P 1'
_symmetry_Int_Tables_number		1

loop_
	_symmetry_equiv_pos_as_xyz
	x,y,z

loop_
	_atom_site_label
	_atom_site_type_symbol
	_atom_site_fract_x
	_atom_site_fract_y
	_atom_site_fract_z
	C0	C	-0.000893	0.749044	1.002750
	C1	C	-0.012581	0.560421	1.644829
	C2	C	0.010070	0.936462	1.649888
	C3	C	-0.193571	0.732887	0.367060
	C4	C	0.190226	0.765115	0.359183
	C5	C	0.045972	0.579079	1.474748
	C6	C	-0.048037	0.918850	1.474817
	C7	C	-0.156401	0.791552	0.459337
	C8	C	0.154464	0.706253	0.458407
	C9	C	0.049384	0.631797	1.247902
	C10	C	-0.051365	0.866150	1.247833
	C11	C	-0.100034	0.792283	0.664755
	C12	C	0.098223	0.705510	0.664582
	C13	C	0.000521	0.678045	1.204449
	C14	C	-0.002334	0.820090	1.204209
	C15	C	-0.073776	0.738859	0.803628
	C16	C	0.071790	0.759021	0.802126
	C17	C	-0.058284	0.647783	1.333612
	C18	C	0.056492	0.851079	1.330647
	C19	C	-0.125381	0.684128	0.774187
	C20	C	0.123323	0.813735	0.770700
	C21	C	-0.066732	0.590140	1.526294
	C22	C	0.064617	0.908429	1.525095
	C23	C	-0.180776	0.679823	0.560259
	C24	C	0.178528	0.817903	0.555985
	H25	H	0.090865	0.554255	1.521039
	H26	H	-0.092899	0.943773	1.520219
	H27	H	-0.173901	0.838234	0.386260
	H28	H	0.172267	0.659598	0.386998
	H29	H	0.096006	0.637195	1.119296
	H30	H	-0.097868	0.860774	1.118114
	H31	H	-0.072862	0.838442	0.731459
	H32	H	0.071568	0.659207	0.733097
	H33	H	-0.100777	0.673303	1.275423
	H34	H	0.099323	0.826332	1.270799
	H35	H	-0.123115	0.638402	0.902505
	H36	H	0.121144	0.859665	0.897336
	H37	H	-0.116895	0.567186	1.587155
	H38	H	0.114717	0.931755	1.584814
	H39	H	-0.212812	0.632782	0.533887
	H40	H	0.210738	0.864841	0.529615
	N41	N	-0.025548	0.512615	1.920921
	N42	N	0.023248	0.985486	1.921155
	N43	N	-0.244313	0.723905	0.098995
	N44	N	0.242268	0.773763	0.096375
	O45	O	-0.086847	0.501158	2.008498
	O46	O	-0.272429	0.664584	0.059864
	O47	O	0.269958	0.833206	0.056009
	O48	O	0.084608	0.997335	2.007582
	C49	C	0.499012	0.749049	0.997179
	C50	C	0.487213	0.560572	0.354461
	C51	C	0.690212	0.765176	1.640769
	C52	C	0.306403	0.732912	1.633041
	C53	C	0.510019	0.936502	0.350071
	C54	C	0.545833	0.579259	0.524128
	C55	C	0.654528	0.706299	1.541330
	C56	C	0.343597	0.791563	1.540732
	C57	C	0.451892	0.918896	0.524950
	C58	C	0.549331	0.632000	0.750770
	C59	C	0.598217	0.705546	1.335396
	C60	C	0.399935	0.792283	1.335283
	C61	C	0.448563	0.866227	0.752143
	C62	C	0.500405	0.678136	0.794934
	C63	C	0.571754	0.759031	1.197643
	C64	C	0.426170	0.738856	1.196480
	C65	C	0.497559	0.820119	0.795790
	C66	C	0.441525	0.647673	0.667001
	C67	C	0.623272	0.813768	1.229048
	C68	C	0.374565	0.684134	1.226170
	C69	C	0.556382	0.851012	0.669115
	C70	C	0.433059	0.590092	0.474002
	C71	C	0.678481	0.817970	1.443923
	C72	C	0.319174	0.679850	1.439947
	C73	C	0.564541	0.908377	0.474709
	H74	H	0.590732	0.554468	0.477645
	H75	H	0.672370	0.659650	1.612725
	H76	H	0.326097	0.838244	1.613700
	H77	H	0.407016	0.943802	0.479330
	H78	H	0.595915	0.637243	0.879759
	H79	H	0.571913	0.659187	1.265420
	H80	H	0.427115	0.838433	1.268512
	H81	H	0.402080	0.860898	0.881881
	H82	H	0.398974	0.673044	0.725636
	H83	H	0.621064	0.859685	1.102248
	H84	H	0.376788	0.638370	1.098194
	H85	H	0.599169	0.826162	0.728800
	H86	H	0.382883	0.567077	0.413555
	H87	H	0.710662	0.864924	1.470376
	H88	H	0.287118	0.632818	1.466307
	H89	H	0.614645	0.931667	0.414949
	N90	N	0.474260	0.513104	0.077210
	N91	N	0.741968	0.773874	1.904799
	N92	N	0.255627	0.723921	1.900852
	N93	N	0.523218	0.985366	0.078082
	O94	O	0.412875	0.501100	-0.008569
	O95	O	0.227557	0.664584	1.940015
	O96	O	0.584535	0.996912	-0.009079
	O97	O	0.770187	0.833173	1.943287
	C98	C	-0.001157	0.248990	0.997362
	C99	C	-0.192533	0.232699	1.639783
	C100	C	0.010103	0.436285	0.348615
	C101	C	-0.012468	0.061717	0.348680
	C102	C	0.190128	0.265224	1.641159
	C103	C	-0.156888	0.291590	1.540348
	C104	C	-0.048103	0.418676	0.522750
	C105	C	0.045690	0.079262	0.523328
	C106	C	0.154475	0.206344	1.541620
	C107	C	-0.100547	0.292377	1.334734
	C108	C	-0.051605	0.365938	0.749567
	C109	C	0.049163	0.131918	0.750487
	C110	C	0.098181	0.205567	1.335557
	C111	C	-0.073919	0.238924	1.197666
	C112	C	-0.002578	0.319938	0.794817
	C113	C	0.000208	0.177995	0.795241
	C114	C	0.071627	0.259012	1.197831
	C115	C	-0.125500	0.184216	1.228310
	C116	C	0.056338	0.351019	0.669587
	C117	C	-0.058670	0.147098	0.668834
	C118	C	0.123119	0.313763	1.229450
	C119	C	-0.180755	0.179963	1.442808
	C120	C	0.064569	0.408325	0.474744
	C121	C	-0.066924	0.089760	0.474241
	C122	C	0.178353	0.317985	1.444222
	H123	H	-0.174774	0.338235	1.611356
	H124	H	-0.092947	0.443609	0.476796
	H125	H	0.090505	0.054282	0.477661
	H126	H	0.172345	0.159698	1.612880
	H127	H	-0.074436	0.338770	1.264327
	H128	H	-0.098165	0.360780	0.878613
	H129	H	0.095785	0.137180	0.879185
	H130	H	0.072098	0.159169	1.265047
	H131	H	-0.123296	0.138318	1.101445
	H132	H	0.099157	0.326276	0.729858
	H133	H	-0.101429	0.171972	0.728596
	H134	H	0.120923	0.359695	1.102777
	H135	H	-0.212939	0.133003	1.468821
	H136	H	0.114699	0.431671	0.415739
	H137	H	-0.117051	0.066438	0.414940
	H138	H	0.210550	0.364936	1.470410
	N139	N	-0.244685	0.224088	1.901995
	N140	N	0.023308	0.484835	0.075469
	N141	N	-0.025707	0.012704	0.077386
	N142	N	0.242187	0.273879	1.904004
	O143	O	-0.272482	0.164682	1.942346
	O144	O	-0.087071	0.000850	-0.008930
	O145	O	0.269868	0.333322	1.944373
	O146	O	0.084730	0.496963	-0.009372
	C147	C	0.498948	0.249122	1.003788
	C148	C	0.487270	0.060564	1.646218
	C149	C	0.509930	0.436520	1.650783
	C150	C	0.306332	0.233000	0.367528
	C151	C	0.690156	0.265290	0.360913
	C152	C	0.545860	0.079279	1.476475
	C153	C	0.451827	0.418964	1.475541
	C154	C	0.343526	0.291653	0.459827
	C155	C	0.654435	0.206407	0.460123
	C156	C	0.549280	0.131985	1.249588
	C157	C	0.448499	0.366297	1.248422
	C158	C	0.399872	0.292366	0.665375
	C159	C	0.598180	0.205629	0.666212
	C160	C	0.500360	0.178149	1.205651
	C161	C	0.497481	0.320165	1.205137
	C162	C	0.426098	0.238939	0.804380
	C163	C	0.571683	0.259125	0.803543
	C164	C	0.441540	0.147804	1.334384
	C165	C	0.556300	0.351031	1.332057
	C166	C	0.374487	0.184220	0.774751
	C167	C	0.623215	0.313855	0.772420
	C168	C	0.433105	0.090187	1.527221
	C169	C	0.564455	0.408389	1.526423
	C170	C	0.319107	0.179933	0.560742
	C171	C	0.678433	0.318068	0.557766
	H172	H	0.590769	0.054490	1.522961
	H173	H	0.406956	0.443879	1.520930
	H174	H	0.326032	0.338337	0.386756
	H175	H	0.672274	0.159765	0.388761
	H176	H	0.595938	0.137436	1.121278
	H177	H	0.402020	0.360981	1.118502
	H178	H	0.427068	0.338513	0.732073
	H179	H	0.571582	0.159310	0.734844
	H180	H	0.399010	0.173230	1.275829
	H181	H	0.599075	0.326157	1.272607
	H182	H	0.376721	0.138478	0.902977
	H183	H	0.621003	0.359759	0.899250
	H184	H	0.382940	0.067193	1.587854
	H185	H	0.614556	0.431682	1.586315
	H186	H	0.287065	0.132895	0.534302
	H187	H	0.710590	0.365036	0.531431
	N188	N	0.474294	0.012753	1.922272
	N189	N	0.523122	0.485325	1.922935
	N190	N	0.255555	0.224025	0.099582
	N191	N	0.742033	0.273942	0.097574
	O192	O	0.413002	0.001296	2.009934
	O193	O	0.227481	0.164690	0.060378
	O194	O	0.770345	0.333212	0.059047
	O195	O	0.584441	0.496862	2.010256
