data_Molecule from CHK

_cell_length_a		30.825091
_cell_length_b		30.825970
_cell_length_c		14.573847
_cell_angle_alpha	91.042003
_cell_angle_beta	89.054110
_cell_angle_gamma	93.100169
_symmetry_space_group_name_H-M	'P 1'
_symmetry_Int_Tables_number		1

loop_
	_symmetry_equiv_pos_as_xyz
	x,y,z

loop_
	_atom_site_label
	_atom_site_type_symbol
	_atom_site_fract_x
	_atom_site_fract_y
	_atom_site_fract_z
	C0	C	-0.002480	0.745623	0.125681
	C1	C	-0.003315	0.620736	0.272562
	C2	C	0.011140	0.859125	0.316851
	C3	C	-0.127680	0.742657	-0.020790
	C4	C	0.109893	0.759976	-0.067770
	C5	C	-0.038862	0.647243	0.276409
	C6	C	0.015455	0.863471	0.221474
	C7	C	-0.100976	0.707273	-0.023434
	C8	C	0.114723	0.764495	0.027496
	C9	C	-0.037866	0.686448	0.229827
	C10	C	0.011033	0.827320	0.162677
	C11	C	-0.061719	0.708889	0.023176
	C12	C	0.078922	0.759808	0.087032
	C13	C	-0.001676	0.701223	0.177061
	C14	C	0.002443	0.785103	0.195422
	C15	C	-0.047192	0.745514	0.075087
	C16	C	0.036592	0.750736	0.055156
	C17	C	0.032902	0.673519	0.170482
	C18	C	-0.000039	0.780954	0.291041
	C19	C	-0.074966	0.780071	0.079989
	C20	C	0.031939	0.747989	-0.040349
	C21	C	0.032182	0.634241	0.216921
	C22	C	0.004321	0.816965	0.350380
	C23	C	-0.114287	0.778734	0.033490
	C24	C	0.067598	0.752626	-0.100419
	H25	H	-0.067508	0.636672	0.315841
	H26	H	0.022535	0.895468	0.193517
	H27	H	-0.111401	0.678342	-0.062240
	H28	H	0.146814	0.771970	0.054783
	H29	H	-0.065912	0.706207	0.233673
	H30	H	0.014385	0.831680	0.089204
	H31	H	-0.041744	0.680992	0.020060
	H32	H	0.083635	0.763337	0.160406
	H33	H	0.060910	0.682230	0.127780
	H34	H	-0.004967	0.749125	0.320557
	H35	H	-0.066318	0.808516	0.121572
	H36	H	-0.000020	0.742631	-0.069181
	H37	H	0.059353	0.613424	0.210384
	H38	H	0.002397	0.812750	0.424063
	H39	H	-0.135207	0.805860	0.038926
	H40	H	0.062997	0.750513	-0.173994
	N41	N	-0.004095	0.580802	0.317877
	N42	N	0.016216	0.894949	0.377533
	N43	N	-0.167606	0.741177	-0.066407
	N44	N	0.145332	0.765451	-0.129177
	C45	C	0.287950	0.754222	0.690360
	C46	C	0.214946	0.745076	0.810687
	C47	C	0.285070	0.721580	0.756568
	C48	C	0.217922	0.777842	0.744759
	C49	C	0.249299	0.717073	0.815584
	C50	C	0.253685	0.782345	0.685744
	H51	H	0.255433	0.807780	0.635258
	H52	H	0.247584	0.691704	0.866217
	H53	H	0.191577	0.799639	0.740832
	H54	H	0.311463	0.699847	0.760601
	C55	C	0.325965	0.759145	0.627709
	H56	H	0.325694	0.785625	0.578262
	C57	C	0.177006	0.740354	0.873603
	H58	H	0.177227	0.713955	0.923244
	C59	C	0.712832	0.748833	0.696067
	C60	C	0.790938	0.749547	0.796261
	C61	C	0.753156	0.759657	0.653725
	C62	C	0.750602	0.738870	0.838695
	C63	C	0.791448	0.760021	0.702782
	C64	C	0.712300	0.738497	0.789621
	H65	H	0.681459	0.730166	0.823348
	H66	H	0.822265	0.768478	0.669080
	H67	H	0.749995	0.730882	0.910895
	H68	H	0.753775	0.767766	0.581590
	C69	C	0.672128	0.748677	0.644006
	H70	H	0.641906	0.739926	0.681962
	C71	C	0.831678	0.750240	0.848264
	H72	H	0.861769	0.759251	0.810060
	C73	C	-0.000800	0.461157	0.555810
	C74	C	-0.000639	0.539442	0.456614
	C75	C	0.004400	0.501753	0.600842
	C76	C	-0.005675	0.498846	0.411524
	C77	C	0.004474	0.540134	0.552285
	C78	C	-0.005776	0.460456	0.460102
	H79	H	-0.009737	0.429412	0.424314
	H80	H	0.008554	0.571165	0.588087
	H81	H	-0.009531	0.498104	0.337666
	H82	H	0.008383	0.502514	0.674668
	C83	C	-0.000682	0.420361	0.607349
	H84	H	-0.004784	0.389960	0.567109
	C85	C	-0.000227	0.580289	0.405166
	H86	H	0.003941	0.610619	0.445654
	C87	C	0.001808	1.037546	0.557135
	C88	C	-0.005593	0.964241	0.436976
	C89	C	-0.030965	1.033642	0.491161
	C90	C	0.027343	0.968273	0.502575
	C91	C	-0.034610	0.997731	0.432218
	C92	C	0.031000	1.004192	0.561489
	H93	H	0.056555	1.006745	0.611776
	H94	H	-0.060119	0.995207	0.381822
	H95	H	0.049925	0.942604	0.506392
	H96	H	-0.053514	1.059338	0.487280
	C97	C	0.005628	1.075604	0.620059
	H98	H	0.032417	1.076309	0.668993
	C99	C	-0.009563	0.926052	0.374437
	H100	H	-0.036253	0.925389	0.325266
	C101	C	0.504838	0.754904	0.373823
	C102	C	0.393052	0.739844	0.568612
	C103	C	0.507198	0.881544	0.233343
	C104	C	0.489473	0.642351	0.180615
	C105	C	0.632097	0.757691	0.512408
	C106	C	0.387953	0.735684	0.473358
	C107	C	0.541959	0.854130	0.226219
	C108	C	0.485614	0.637627	0.275980
	C109	C	0.604626	0.792388	0.519973
	C110	C	0.423561	0.740702	0.413411
	C111	C	0.540537	0.814439	0.271013
	C112	C	0.490674	0.673487	0.335385
	C113	C	0.564753	0.790843	0.475728
	C114	C	0.465962	0.749835	0.444822
	C115	C	0.504327	0.799663	0.323717
	C116	C	0.499528	0.715786	0.303322
	C117	C	0.549732	0.754461	0.423639
	C118	C	0.470926	0.751962	0.540296
	C119	C	0.469610	0.827211	0.329762
	C120	C	0.501242	0.720387	0.207772
	C121	C	0.577488	0.719938	0.416614
	C122	C	0.435445	0.747057	0.600785
	C123	C	0.470779	0.866999	0.285203
	C124	C	0.496311	0.684645	0.147813
	C125	C	0.617479	0.721243	0.460533
	H126	H	0.355816	0.728074	0.446420
	H127	H	0.570504	0.864596	0.186355
	H128	H	0.478234	0.605589	0.303486
	H129	H	0.615270	0.821034	0.559472
	H130	H	0.418648	0.737222	0.340088
	H131	H	0.568260	0.794286	0.265782
	H132	H	0.487487	0.668859	0.408807
	H133	H	0.544580	0.818546	0.481195
	H134	H	0.502981	0.757159	0.568757
	H135	H	0.441221	0.818075	0.370964
	H136	H	0.506157	0.752358	0.178892
	H137	H	0.568299	0.691545	0.375336
	H138	H	0.440273	0.748809	0.674309
	H139	H	0.443435	0.887623	0.291122
	H140	H	0.497787	0.689186	0.074204
	H141	H	0.638214	0.694006	0.454010
	N142	N	0.357723	0.734133	0.630280
	N143	N	0.507661	0.921002	0.186374
	N144	N	0.483932	0.606739	0.119432
	N145	N	0.671709	0.758280	0.558958
	C146	C	0.002096	0.252667	0.876587
	C147	C	-0.016130	0.141763	0.679994
	C148	C	0.129495	0.254447	1.014384
	C149	C	-0.109570	0.234047	1.070726
	C150	C	0.003899	0.380381	0.740494
	C151	C	-0.018143	0.136185	0.775288
	C152	C	0.102005	0.289101	1.023239
	C153	C	-0.114750	0.232099	0.975293
	C154	C	0.038673	0.353032	0.731857
	C155	C	-0.012314	0.171555	0.835736
	C156	C	0.062109	0.287890	0.979123
	C157	C	-0.079136	0.237994	0.915648
	C158	C	0.037483	0.313057	0.775512
	C159	C	-0.003373	0.214050	0.804881
	C160	C	0.047040	0.251877	0.925988
	C161	C	-0.036772	0.246925	0.947470
	C162	C	0.001371	0.297766	0.827911
	C163	C	-0.001595	0.219288	0.709499
	C164	C	0.074851	0.217451	0.917457
	C165	C	-0.031914	0.248537	1.042975
	C166	C	-0.033150	0.325464	0.836328
	C167	C	-0.007422	0.184055	0.648481
	C168	C	0.114891	0.218448	0.961147
	C169	C	-0.067396	0.242656	1.103196
	C170	C	-0.032172	0.365584	0.793118
	H171	H	-0.025344	0.103937	0.801877
	H172	H	0.112582	0.317454	1.063725
	H173	H	-0.146880	0.224924	0.947931
	H174	H	0.067086	0.363775	0.691875
	H175	H	-0.014839	0.166350	0.909058
	H176	H	0.041841	0.315477	0.985897
	H177	H	-0.084045	0.235576	0.842193
	H178	H	0.065144	0.292882	0.768863
	H179	H	0.003942	0.251386	0.681566
	H180	H	0.065649	0.189372	0.875243
	H181	H	0.000076	0.254014	1.071612
	H182	H	-0.061301	0.316104	0.878059
	H183	H	-0.005670	0.189060	0.575041
	H184	H	0.135641	0.191263	0.953605
	H185	H	-0.062687	0.244329	1.176766
	H186	H	-0.059431	0.386242	0.800555
	N187	N	-0.020548	0.106398	0.617958
	N188	N	0.169124	0.254490	1.060800
	N189	N	-0.145186	0.229746	1.132038
	N190	N	0.003922	0.420064	0.694457
	C191	C	0.496325	0.463304	0.941164
	C192	C	0.504244	0.536619	1.061239
	C193	C	0.528377	0.466454	1.008746
	C194	C	0.472292	0.533551	0.993436
	C195	C	0.532276	0.502362	1.067632
	C196	C	0.468383	0.497624	0.934557
	H197	H	0.443577	0.495792	0.882598
	H198	H	0.557191	0.504254	1.119359
	H199	H	0.450638	0.559936	0.987976
	H200	H	0.550137	0.440149	1.014017
	C201	C	0.492438	0.425309	0.878044
	H202	H	0.466416	0.425278	0.827397
	C203	C	0.508697	0.574838	1.123606
	H204	H	0.534873	0.574738	1.173906
	C205	C	0.499647	1.039251	-0.053103
	C206	C	0.499505	0.961530	0.048022
	C207	C	0.490492	0.998603	-0.095706
	C208	C	0.508868	1.002163	0.090529
	C209	C	0.490405	0.960493	-0.046189
	C210	C	0.508944	1.040272	0.041020
	H211	H	0.516231	1.071341	0.074857
	H212	H	0.483219	0.929416	-0.080072
	H213	H	0.516040	1.003167	0.163169
	H214	H	0.483431	0.997591	-0.168397
	C215	C	0.499863	1.079774	-0.105638
	H216	H	0.507480	1.110196	-0.067311
	C217	C	0.499539	0.921009	0.100530
	H218	H	0.491942	0.890558	0.062299
	C219	C	0.287966	0.249823	0.300419
	C220	C	0.209958	0.250001	0.200054
	C221	C	0.247242	0.245003	0.344893
	C222	C	0.250677	0.255047	0.155640
	C223	C	0.208993	0.245080	0.295756
	C224	C	0.288927	0.254958	0.204776
	H225	H	0.320058	0.258884	0.169445
	H226	H	0.177859	0.241247	0.331107
	H227	H	0.251634	0.258990	0.081821
	H228	H	0.246280	0.241151	0.418734
	C229	C	0.328636	0.249804	0.352564
	H230	H	0.359123	0.253771	0.312691
	C231	C	0.169279	0.250143	0.147968
	H232	H	0.138804	0.246249	0.187905
	C233	C	0.712131	0.245721	0.310427
	C234	C	0.785696	0.252276	0.191096
	C235	C	0.716324	0.278193	0.243963
	C236	C	0.781606	0.219936	0.257864
	C237	C	0.752363	0.281428	0.185447
	C238	C	0.745564	0.216701	0.316384
	H239	H	0.742932	0.191563	0.367497
	H240	H	0.755056	0.306655	0.134530
	H241	H	0.807281	0.197424	0.262769
	H242	H	0.690708	0.300783	0.239218
	C243	C	0.673960	0.242386	0.372990
	H244	H	0.673169	0.215987	0.422771
	C245	C	0.823978	0.255836	0.128874
	H246	H	0.824710	0.282273	0.079181
	C247	C	0.495587	0.246972	0.624694
	C248	C	0.492487	0.119478	0.761898
	C249	C	0.513412	0.358376	0.820266
	C250	C	0.368365	0.245687	0.486283
	C251	C	0.607488	0.264414	0.430739
	C252	C	0.457902	0.147076	0.769789
	C253	C	0.516185	0.363647	0.724929
	C254	C	0.395650	0.210852	0.477882
	C255	C	0.612603	0.266627	0.526176
	C256	C	0.459530	0.186997	0.725889
	C257	C	0.510594	0.328112	0.664814
	C258	C	0.435510	0.211934	0.522108
	C259	C	0.576919	0.261114	0.585766
	C260	C	0.495901	0.201966	0.673889
	C261	C	0.501268	0.285734	0.696019
	C262	C	0.450730	0.247966	0.575010
	C263	C	0.534551	0.252250	0.553903
	C264	C	0.530283	0.174056	0.666404
	C265	C	0.498491	0.280839	0.791427
	C266	C	0.423151	0.282602	0.583000
	C267	C	0.529769	0.250347	0.458386
	C268	C	0.528881	0.133994	0.709928
	C269	C	0.504117	0.316228	0.852108
	C270	C	0.383152	0.281744	0.539149
	C271	C	0.565312	0.255888	0.398221
	H272	H	0.429274	0.136513	0.809294
	H273	H	0.523643	0.395794	0.698048
	H274	H	0.384883	0.182408	0.437880
	H275	H	0.644759	0.273603	0.553561
	H276	H	0.431904	0.207260	0.731618
	H277	H	0.513453	0.333112	0.591464
	H278	H	0.455514	0.184122	0.516019
	H279	H	0.581807	0.263564	0.659223
	H280	H	0.558648	0.183197	0.625123
	H281	H	0.492414	0.248875	0.819693
	H282	H	0.432503	0.310726	0.624954
	H283	H	0.497793	0.244919	0.429663
	H284	H	0.556025	0.113155	0.703141
	H285	H	0.501691	0.311460	0.925581
	H286	H	0.362569	0.309073	0.546316
	H287	H	0.560650	0.254016	0.324647
	N288	N	0.491878	0.079883	0.808448
	N289	N	0.517705	0.393826	0.882073
	N290	N	0.328760	0.245671	0.439789
	N291	N	0.643124	0.268454	0.369460
