data_Molecule from CHK

_cell_length_a		30.922388
_cell_length_b		30.922388
_cell_length_c		43.730656
_cell_angle_alpha	90.000000
_cell_angle_beta	90.000000
_cell_angle_gamma	90.000000
_symmetry_space_group_name_H-M	'P 1'
_symmetry_Int_Tables_number		1

loop_
	_symmetry_equiv_pos_as_xyz
	x,y,z

loop_
	_atom_site_label
	_atom_site_type_symbol
	_atom_site_fract_x
	_atom_site_fract_y
	_atom_site_fract_z
	C0	C	0.000000	0.750000	0.375000
	C1	C	-0.003039	0.629265	0.429894
	C2	C	0.006636	0.866625	0.433965
	C3	C	-0.120585	0.745254	0.320029
	C4	C	0.116685	0.758147	0.316163
	C5	C	0.004087	0.669405	0.443956
	C6	C	-0.031273	0.856645	0.417851
	C7	C	-0.080775	0.754643	0.306172
	C8	C	0.106832	0.719919	0.331934
	C9	C	0.005371	0.707604	0.426924
	C10	C	-0.033868	0.819977	0.399282
	C11	C	-0.042560	0.756066	0.323180
	C12	C	0.070152	0.716854	0.350458
	C13	C	-0.000550	0.707814	0.395128
	C14	C	0.001149	0.791608	0.395707
	C15	C	-0.042145	0.748949	0.354850
	C16	C	0.041636	0.751688	0.354329
	C17	C	-0.009607	0.667696	0.381512
	C18	C	0.039337	0.802624	0.411250
	C19	C	-0.082174	0.739497	0.368465
	C20	C	0.052523	0.790186	0.339124
	C21	C	-0.010865	0.629381	0.398347
	C22	C	0.042178	0.839139	0.429888
	C23	C	-0.120506	0.738095	0.351656
	C24	C	0.089046	0.793500	0.320533
	H25	H	0.008149	0.670584	0.468564
	H26	H	-0.059080	0.877710	0.420330
	H27	H	-0.079833	0.759914	0.281671
	H28	H	0.127998	0.692233	0.329222
	H29	H	0.010243	0.737766	0.438940
	H30	H	-0.063763	0.813834	0.387231
	H31	H	-0.012559	0.762174	0.311248
	H32	H	0.064127	0.686721	0.362235
	H33	H	-0.015855	0.666720	0.357125
	H34	H	0.067347	0.781885	0.408579
	H35	H	-0.083082	0.733212	0.392848
	H36	H	0.031685	0.818077	0.342018
	H37	H	-0.018070	0.598939	0.387154
	H38	H	0.072121	0.846743	0.441604
	H39	H	-0.150906	0.730795	0.362875
	H40	H	0.096543	0.823674	0.309081
	N41	N	-0.005389	0.590653	0.446784
	N42	N	0.010053	0.904195	0.451923
	N43	N	-0.159508	0.745183	0.303412
	N44	N	0.154261	0.762043	0.298260
	C45	C	0.287073	0.757519	0.231672
	C46	C	0.212858	0.742486	0.268259
	C47	C	0.272453	0.715292	0.237499
	C48	C	0.227579	0.784705	0.262535
	C49	C	0.236092	0.707893	0.255429
	C50	C	0.263944	0.792105	0.244607
	H51	H	0.274858	0.824874	0.240430
	H52	H	0.225249	0.675118	0.259676
	H53	H	0.209869	0.811533	0.272451
	H54	H	0.290221	0.688458	0.227644
	C55	C	0.325806	0.765422	0.212716
	H56	H	0.335123	0.799377	0.209303
	C57	C	0.174346	0.734549	0.287430
	H58	H	0.165156	0.700579	0.290947
	C59	C	0.709117	0.746869	0.235482
	C60	C	0.790911	0.753021	0.264489
	C61	C	0.745020	0.764127	0.220025
	C62	C	0.754967	0.735925	0.279988
	C63	C	0.785115	0.767161	0.234222
	C64	C	0.714870	0.732896	0.265792
	H65	H	0.687487	0.719637	0.278085
	H66	H	0.812469	0.780531	0.221958
	H67	H	0.759200	0.725084	0.303384
	H68	H	0.740767	0.775064	0.196655
	C69	C	0.666450	0.743777	0.220461
	H70	H	0.640038	0.729955	0.234143
	C71	C	0.833496	0.756466	0.279588
	H72	H	0.859851	0.770467	0.265940
	C73	C	-0.004139	0.459439	0.514840
	C74	C	0.004038	0.540598	0.485197
	C75	C	0.018811	0.493559	0.528513
	C76	C	-0.018762	0.506424	0.471469
	C77	C	0.022841	0.533340	0.514003
	C78	C	-0.022789	0.466641	0.485978
	H79	H	-0.040477	0.440630	0.475059
	H80	H	0.040632	0.559311	0.524885
	H81	H	-0.033231	0.511780	0.449197
	H82	H	0.033368	0.488175	0.550752
	C83	C	-0.008309	0.417094	0.530184
	H84	H	-0.026713	0.392112	0.517932
	C85	C	0.008535	0.582830	0.469746
	H86	H	0.027105	0.607740	0.481949
	C87	C	0.007521	1.036839	0.518563
	C88	C	-0.007523	0.963092	0.481507
	C89	C	-0.034736	1.023535	0.511419
	C90	C	0.034737	0.976498	0.488547
	C91	C	-0.042141	0.987404	0.493259
	C92	C	0.042142	1.012632	0.506706
	H93	H	0.074943	1.022525	0.511904
	H94	H	-0.074941	0.977583	0.487990
	H95	H	0.061592	0.957951	0.479467
	H96	H	-0.061593	1.042139	0.520438
	C97	C	0.015438	1.075325	0.537765
	H98	H	0.049422	1.083583	0.542236
	C99	C	-0.015453	0.924828	0.462088
	H100	H	-0.049441	0.916696	0.457513
	C101	C	0.500000	0.750000	0.125000
	C102	C	0.383219	0.743006	0.183848
	C103	C	0.502665	0.870595	0.070005
	C104	C	0.492305	0.632364	0.067080
	C105	C	0.621253	0.753579	0.179269
	C106	C	0.392791	0.780702	0.167341
	C107	C	0.494835	0.830537	0.056041
	C108	C	0.530762	0.643106	0.082291
	C109	C	0.581441	0.745310	0.193457
	C110	C	0.429564	0.783411	0.148884
	C111	C	0.493773	0.792336	0.073078
	C112	C	0.533573	0.679934	0.100687
	C113	C	0.543045	0.743961	0.176649
	C114	C	0.458504	0.748760	0.145818
	C115	C	0.500671	0.792085	0.104771
	C116	C	0.498551	0.708252	0.104453
	C117	C	0.542332	0.750991	0.144974
	C118	C	0.447533	0.710556	0.161348
	C119	C	0.509730	0.832230	0.118356
	C120	C	0.460196	0.697126	0.089165
	C121	C	0.582230	0.760479	0.131168
	C122	C	0.410911	0.707605	0.179877
	C123	C	0.510770	0.870546	0.101519
	C124	C	0.457138	0.660451	0.070699
	C125	C	0.620740	0.761806	0.147773
	H126	H	0.370803	0.807930	0.168782
	H127	H	0.488985	0.829645	0.031605
	H128	H	0.558369	0.621712	0.080126
	H129	H	0.580893	0.739338	0.217883
	H130	H	0.435065	0.812944	0.136239
	H131	H	0.487805	0.762266	0.061201
	H132	H	0.563559	0.686056	0.112633
	H133	H	0.513188	0.737659	0.188703
	H134	H	0.468307	0.682558	0.158713
	H135	H	0.516037	0.833195	0.142731
	H136	H	0.432217	0.717914	0.091853
	H137	H	0.582863	0.766899	0.106804
	H138	H	0.403280	0.677588	0.191496
	H139	H	0.517828	0.901035	0.112689
	H140	H	0.427069	0.652819	0.059149
	H141	H	0.651027	0.769190	0.136434
	N142	N	0.345848	0.739416	0.201979
	N143	N	0.505201	0.909046	0.052929
	N144	N	0.489425	0.596250	0.047654
	N145	N	0.659892	0.756412	0.196109
	C146	C	0.000000	0.250000	0.625000
	C147	C	-0.006994	0.133219	0.566152
	C148	C	0.120595	0.252665	0.679995
	C149	C	-0.117636	0.242305	0.682920
	C150	C	0.003579	0.371253	0.570731
	C151	C	0.030702	0.142791	0.582659
	C152	C	0.080537	0.244835	0.693959
	C153	C	-0.106894	0.280762	0.667709
	C154	C	-0.004690	0.331441	0.556543
	C155	C	0.033411	0.179564	0.601116
	C156	C	0.042336	0.243773	0.676922
	C157	C	-0.070066	0.283573	0.649313
	C158	C	-0.006039	0.293045	0.573351
	C159	C	-0.001240	0.208504	0.604182
	C160	C	0.042085	0.250671	0.645229
	C161	C	-0.041748	0.248551	0.645547
	C162	C	0.000991	0.292332	0.605026
	C163	C	-0.039444	0.197533	0.588652
	C164	C	0.082230	0.259730	0.631644
	C165	C	-0.052874	0.210196	0.660835
	C166	C	0.010479	0.332230	0.618832
	C167	C	-0.042395	0.160911	0.570123
	C168	C	0.120546	0.260770	0.648481
	C169	C	-0.089549	0.207138	0.679301
	C170	C	0.011806	0.370740	0.602227
	H171	H	0.057930	0.120803	0.581218
	H172	H	0.079645	0.238985	0.718395
	H173	H	-0.128288	0.308369	0.669874
	H174	H	-0.010662	0.330893	0.532117
	H175	H	0.062944	0.185065	0.613761
	H176	H	0.012266	0.237805	0.688799
	H177	H	-0.063944	0.313559	0.637367
	H178	H	-0.012341	0.263188	0.561297
	H179	H	-0.067442	0.218307	0.591287
	H180	H	0.083195	0.266037	0.607269
	H181	H	-0.032086	0.182217	0.658147
	H182	H	0.016899	0.332863	0.643196
	H183	H	-0.072412	0.153280	0.558504
	H184	H	0.151035	0.267828	0.637311
	H185	H	-0.097181	0.177069	0.690851
	H186	H	0.019190	0.401027	0.613566
	N187	N	-0.010584	0.095848	0.548021
	N188	N	0.159046	0.255201	0.697071
	N189	N	-0.153750	0.239425	0.702346
	N190	N	0.006412	0.409892	0.553891
	C191	C	0.492478	0.463137	0.981462
	C192	C	0.507519	0.536794	1.018607
	C193	C	0.534726	0.476161	0.988885
	C194	C	0.465275	0.523873	1.011082
	C195	C	0.542130	0.512255	1.007082
	C196	C	0.457872	0.487781	0.992881
	H197	H	0.425083	0.478278	0.987293
	H198	H	0.574922	0.521827	1.012600
	H199	H	0.438431	0.542757	1.019826
	H200	H	0.561575	0.457340	0.980083
	C201	C	0.484569	0.424880	0.962030
	H202	H	0.450595	0.416918	0.957263
	C203	C	0.515456	0.575264	1.037820
	H204	H	0.549442	0.583323	1.042468
	C205	C	0.504197	1.040539	-0.014862
	C206	C	0.495704	0.959501	0.014901
	C207	C	0.480321	1.006775	-0.028180
	C208	C	0.519726	0.993206	0.028161
	C209	C	0.476146	0.967049	-0.013614
	C210	C	0.523905	1.032931	0.013593
	H211	H	0.542560	1.058569	0.024141
	H212	H	0.457592	0.941372	-0.024202
	H213	H	0.535012	0.987536	0.050119
	H214	H	0.465120	1.012407	-0.050171
	C215	C	0.508796	1.082719	-0.030371
	H216	H	0.528046	1.107375	-0.018444
	C217	C	0.491406	0.917192	0.030276
	H218	H	0.472311	0.892484	0.018275
	C219	C	0.290624	0.253968	0.764777
	C220	C	0.209413	0.245931	0.735186
	C221	C	0.256374	0.231372	0.778580
	C222	C	0.243608	0.268677	0.721437
	C223	C	0.216563	0.227421	0.764100
	C224	C	0.283418	0.272631	0.735920
	H225	H	0.309437	0.290296	0.724992
	H226	H	0.190508	0.209859	0.775066
	H227	H	0.238249	0.283152	0.699167
	H228	H	0.261696	0.216983	0.800882
	C229	C	0.332898	0.258330	0.780192
	H230	H	0.357947	0.276553	0.767872
	C231	C	0.167017	0.241878	0.719899
	H232	H	0.141921	0.223814	0.732289
	C233	C	0.713475	0.242511	0.768876
	C234	C	0.786456	0.257477	0.731055
	C235	C	0.724599	0.284548	0.759553
	C236	C	0.775434	0.215458	0.740479
	C237	C	0.760360	0.291915	0.741023
	C238	C	0.739675	0.208091	0.759013
	H239	H	0.731646	0.175478	0.766075
	H240	H	0.768458	0.324542	0.734031
	H241	H	0.795525	0.188758	0.732942
	H242	H	0.704571	0.311261	0.767148
	C243	C	0.675574	0.234652	0.788664
	H244	H	0.669139	0.200853	0.794959
	C245	C	0.824569	0.265393	0.711485
	H246	H	0.831099	0.299219	0.705308
	C247	C	0.500000	0.250000	0.875000
	C248	C	0.496961	0.129265	0.929894
	C249	C	0.506636	0.366625	0.933965
	C250	C	0.379415	0.245254	0.820029
	C251	C	0.616685	0.258147	0.816163
	C252	C	0.504087	0.169405	0.943956
	C253	C	0.468727	0.356645	0.917851
	C254	C	0.419225	0.254643	0.806172
	C255	C	0.606832	0.219919	0.831934
	C256	C	0.505371	0.207604	0.926924
	C257	C	0.466132	0.319977	0.899282
	C258	C	0.457440	0.256066	0.823180
	C259	C	0.570152	0.216854	0.850458
	C260	C	0.499450	0.207814	0.895128
	C261	C	0.501149	0.291608	0.895707
	C262	C	0.457855	0.248949	0.854850
	C263	C	0.541636	0.251688	0.854329
	C264	C	0.490393	0.167696	0.881512
	C265	C	0.539337	0.302624	0.911250
	C266	C	0.417826	0.239497	0.868465
	C267	C	0.552523	0.290186	0.839124
	C268	C	0.489135	0.129381	0.898347
	C269	C	0.542178	0.339139	0.929888
	C270	C	0.379494	0.238095	0.851656
	C271	C	0.589046	0.293500	0.820533
	H272	H	0.508149	0.170584	0.968564
	H273	H	0.440920	0.377710	0.920330
	H274	H	0.420167	0.259914	0.781671
	H275	H	0.627998	0.192233	0.829222
	H276	H	0.510243	0.237766	0.938940
	H277	H	0.436237	0.313834	0.887231
	H278	H	0.487441	0.262174	0.811248
	H279	H	0.564127	0.186721	0.862235
	H280	H	0.484145	0.166720	0.857125
	H281	H	0.567347	0.281885	0.908579
	H282	H	0.416918	0.233212	0.892848
	H283	H	0.531685	0.318077	0.842018
	H284	H	0.481930	0.098939	0.887154
	H285	H	0.572121	0.346743	0.941604
	H286	H	0.349094	0.230795	0.862875
	H287	H	0.596543	0.323674	0.809081
	N288	N	0.494611	0.090653	0.946784
	N289	N	0.510053	0.404195	0.951923
	N290	N	0.340492	0.245183	0.803412
	N291	N	0.654261	0.262043	0.798260
