data_Molecule from CHK

_cell_length_a		30.922388
_cell_length_b		30.922388
_cell_length_c		14.576885
_cell_angle_alpha	90.000000
_cell_angle_beta	90.000000
_cell_angle_gamma	90.000000
_symmetry_space_group_name_H-M	'P 1'
_symmetry_Int_Tables_number		1

loop_
	_symmetry_equiv_pos_as_xyz
	x,y,z

loop_
	_atom_site_label
	_atom_site_type_symbol
	_atom_site_fract_x
	_atom_site_fract_y
	_atom_site_fract_z
	C0	C	0.000000	0.750000	0.125000
	C1	C	-0.003039	0.629265	0.289682
	C2	C	0.006636	0.866625	0.301896
	C3	C	-0.120585	0.745254	-0.039912
	C4	C	0.116685	0.758147	-0.051511
	C5	C	0.004087	0.669405	0.331868
	C6	C	-0.031273	0.856645	0.253554
	C7	C	-0.080775	0.754643	-0.081485
	C8	C	0.106832	0.719919	-0.004197
	C9	C	0.005371	0.707604	0.280771
	C10	C	-0.033868	0.819977	0.197846
	C11	C	-0.042560	0.756066	-0.030460
	C12	C	0.070152	0.716854	0.051374
	C13	C	-0.000550	0.707814	0.185385
	C14	C	0.001149	0.791608	0.187122
	C15	C	-0.042145	0.748949	0.064551
	C16	C	0.041636	0.751688	0.062988
	C17	C	-0.009607	0.667696	0.144535
	C18	C	0.039337	0.802624	0.233750
	C19	C	-0.082174	0.739497	0.105396
	C20	C	0.052523	0.790186	0.017372
	C21	C	-0.010865	0.629381	0.195042
	C22	C	0.042178	0.839139	0.289664
	C23	C	-0.120506	0.738095	0.054969
	C24	C	0.089046	0.793500	-0.038402
	H25	H	0.008149	0.670584	0.405692
	H26	H	-0.059080	0.877710	0.260991
	H27	H	-0.079833	0.759914	-0.154986
	H28	H	0.127998	0.692233	-0.012333
	H29	H	0.010243	0.737766	0.316820
	H30	H	-0.063763	0.813834	0.161693
	H31	H	-0.012559	0.762174	-0.066257
	H32	H	0.064127	0.686721	0.086706
	H33	H	-0.015855	0.666720	0.071376
	H34	H	0.067347	0.781885	0.225738
	H35	H	-0.083082	0.733212	0.178545
	H36	H	0.031685	0.818077	0.026054
	H37	H	-0.018070	0.598939	0.161463
	H38	H	0.072121	0.846743	0.324811
	H39	H	-0.150906	0.730795	0.088625
	H40	H	0.096543	0.823674	-0.072756
	N41	N	-0.005389	0.590653	0.340353
	N42	N	0.010053	0.904195	0.355768
	N43	N	-0.159508	0.745183	-0.089764
	N44	N	0.154261	0.762043	-0.105221
	C45	C	0.287073	0.757519	0.695015
	C46	C	0.212858	0.742486	0.804777
	C47	C	0.272453	0.715292	0.712497
	C48	C	0.227579	0.784705	0.787604
	C49	C	0.236092	0.707893	0.766287
	C50	C	0.263944	0.792105	0.733820
	H51	H	0.274858	0.824874	0.721289
	H52	H	0.225249	0.675118	0.779027
	H53	H	0.209869	0.811533	0.817354
	H54	H	0.290221	0.688458	0.682931
	C55	C	0.325806	0.765422	0.638148
	H56	H	0.335123	0.799377	0.627909
	C57	C	0.174346	0.734549	0.862291
	H58	H	0.165156	0.700579	0.872840
	C59	C	0.709303	0.746243	0.705887
	C60	C	0.790731	0.753652	0.794010
	C61	C	0.744177	0.767033	0.662606
	C62	C	0.755807	0.733017	0.837444
	C63	C	0.784091	0.770686	0.705739
	C64	C	0.715891	0.729369	0.794314
	H65	H	0.689300	0.713362	0.828815
	H66	H	0.810647	0.786799	0.671338
	H67	H	0.760687	0.719925	0.905687
	H68	H	0.739272	0.780216	0.594452
	C69	C	0.666821	0.742483	0.660268
	H70	H	0.641234	0.725817	0.698839
	C71	C	0.833111	0.757751	0.839919
	H72	H	0.858632	0.774587	0.801477
	C73	C	-0.004028	0.459398	0.544397
	C74	C	0.003926	0.540639	0.455714
	C75	C	0.018293	0.493747	0.586105
	C76	C	-0.018244	0.506236	0.413841
	C77	C	0.022214	0.533569	0.542696
	C78	C	-0.022161	0.466412	0.457247
	H79	H	-0.039359	0.440224	0.423958
	H80	H	0.039516	0.559719	0.575877
	H81	H	-0.032312	0.511446	0.346589
	H82	H	0.032450	0.488509	0.653261
	C83	C	-0.008078	0.417011	0.590302
	H84	H	-0.025976	0.391844	0.552991
	C85	C	0.008307	0.582916	0.409496
	H86	H	0.026372	0.608012	0.446664
	C87	C	0.007517	1.036759	0.555927
	C88	C	-0.007520	0.963172	0.444281
	C89	C	-0.034723	1.023904	0.533151
	C90	C	0.034725	0.976129	0.466748
	C91	C	-0.042124	0.987852	0.478434
	C92	C	0.042126	1.012185	0.521459
	H93	H	0.074917	1.021729	0.538099
	H94	H	-0.074912	0.978379	0.461584
	H95	H	0.061571	0.957297	0.440362
	H96	H	-0.061569	1.042793	0.559353
	C97	C	0.015434	1.075161	0.613786
	H98	H	0.049404	1.083059	0.628282
	C99	C	-0.015444	0.924992	0.385773
	H100	H	-0.049415	0.917221	0.370965
	C101	C	0.500000	0.750000	0.375000
	C102	C	0.383219	0.743006	0.551544
	C103	C	0.502665	0.870595	0.210015
	C104	C	0.492305	0.632364	0.201241
	C105	C	0.621253	0.753579	0.537808
	C106	C	0.392791	0.780702	0.502024
	C107	C	0.494835	0.830537	0.168122
	C108	C	0.530762	0.643106	0.246872
	C109	C	0.581441	0.745310	0.580370
	C110	C	0.429564	0.783411	0.446651
	C111	C	0.493773	0.792336	0.219233
	C112	C	0.533573	0.679934	0.302060
	C113	C	0.543045	0.743961	0.529947
	C114	C	0.458504	0.748760	0.437455
	C115	C	0.500671	0.792085	0.314312
	C116	C	0.498551	0.708252	0.313358
	C117	C	0.542332	0.750991	0.434922
	C118	C	0.447533	0.710556	0.484045
	C119	C	0.509730	0.832230	0.355069
	C120	C	0.460196	0.697126	0.267494
	C121	C	0.582230	0.760479	0.393505
	C122	C	0.410911	0.707605	0.539631
	C123	C	0.510770	0.870546	0.304558
	C124	C	0.457138	0.660451	0.212098
	C125	C	0.620740	0.761806	0.443320
	H126	H	0.370803	0.807930	0.506347
	H127	H	0.488985	0.829645	0.094814
	H128	H	0.558369	0.621712	0.240378
	H129	H	0.580893	0.739338	0.653650
	H130	H	0.435065	0.812944	0.408716
	H131	H	0.487805	0.762266	0.183603
	H132	H	0.563559	0.686056	0.337899
	H133	H	0.513188	0.737659	0.566110
	H134	H	0.468307	0.682558	0.476138
	H135	H	0.516037	0.833195	0.428193
	H136	H	0.432217	0.717914	0.275558
	H137	H	0.582863	0.766899	0.320411
	H138	H	0.403280	0.677588	0.574487
	H139	H	0.517828	0.901035	0.338067
	H140	H	0.427069	0.652819	0.177447
	H141	H	0.651027	0.769190	0.409303
	N142	N	0.345848	0.739416	0.605938
	N143	N	0.505201	0.909046	0.158786
	N144	N	0.489425	0.596250	0.142963
	N145	N	0.659892	0.756412	0.588327
	C146	C	0.000000	0.250000	0.875000
	C147	C	-0.006994	0.133219	0.698456
	C148	C	0.120595	0.252665	1.039985
	C149	C	-0.117636	0.242305	1.048759
	C150	C	0.003579	0.371253	0.712192
	C151	C	0.030702	0.142791	0.747976
	C152	C	0.080537	0.244835	1.081878
	C153	C	-0.106894	0.280762	1.003128
	C154	C	-0.004690	0.331441	0.669630
	C155	C	0.033411	0.179564	0.803349
	C156	C	0.042336	0.243773	1.030767
	C157	C	-0.070066	0.283573	0.947940
	C158	C	-0.006039	0.293045	0.720053
	C159	C	-0.001240	0.208504	0.812545
	C160	C	0.042085	0.250671	0.935688
	C161	C	-0.041748	0.248551	0.936642
	C162	C	0.000991	0.292332	0.815078
	C163	C	-0.039444	0.197533	0.765955
	C164	C	0.082230	0.259730	0.894931
	C165	C	-0.052874	0.210196	0.982506
	C166	C	0.010479	0.332230	0.856495
	C167	C	-0.042395	0.160911	0.710369
	C168	C	0.120546	0.260770	0.945442
	C169	C	-0.089549	0.207138	1.037902
	C170	C	0.011806	0.370740	0.806680
	H171	H	0.057930	0.120803	0.743653
	H172	H	0.079645	0.238985	1.155186
	H173	H	-0.128288	0.308369	1.009622
	H174	H	-0.010662	0.330893	0.596350
	H175	H	0.062944	0.185065	0.841284
	H176	H	0.012266	0.237805	1.066397
	H177	H	-0.063944	0.313559	0.912101
	H178	H	-0.012341	0.263188	0.683890
	H179	H	-0.067442	0.218307	0.773862
	H180	H	0.083195	0.266037	0.821807
	H181	H	-0.032086	0.182217	0.974442
	H182	H	0.016899	0.332863	0.929589
	H183	H	-0.072412	0.153280	0.675513
	H184	H	0.151035	0.267828	0.911933
	H185	H	-0.097181	0.177069	1.072553
	H186	H	0.019190	0.401027	0.840697
	N187	N	-0.010584	0.095848	0.644062
	N188	N	0.159046	0.255201	1.091214
	N189	N	-0.153750	0.239425	1.107037
	N190	N	0.006412	0.409892	0.661673
	C191	C	0.492531	0.463583	0.943047
	C192	C	0.507454	0.536348	1.057159
	C193	C	0.534446	0.474101	0.972834
	C194	C	0.465561	0.525933	1.027067
	C195	C	0.541793	0.509756	1.028744
	C196	C	0.458215	0.490280	0.971148
	H197	H	0.425700	0.482721	0.948551
	H198	H	0.574324	0.517383	1.051132
	H199	H	0.438942	0.546408	1.048523
	H200	H	0.561081	0.453687	0.951206
	C201	C	0.484699	0.425796	0.883345
	H202	H	0.450999	0.419848	0.862998
	C203	C	0.515352	0.574347	1.116211
	H204	H	0.549084	0.580389	1.136206
	C205	C	0.504182	1.040544	-0.044571
	C206	C	0.495718	0.959495	0.044687
	C207	C	0.480387	1.006749	-0.084617
	C208	C	0.519661	0.993232	0.084561
	C209	C	0.476226	0.967018	-0.040936
	C210	C	0.523825	1.032962	0.040875
	H211	H	0.542418	1.058626	0.072591
	H212	H	0.457733	0.941316	-0.072774
	H213	H	0.534896	0.987582	0.150496
	H214	H	0.465236	1.012360	-0.150652
	C215	C	0.508767	1.082730	-0.091078
	H216	H	0.527953	1.107412	-0.055221
	C217	C	0.491436	0.917181	0.090795
	H218	H	0.472405	0.892448	0.054716
	C219	C	0.290551	0.254165	0.294551
	C220	C	0.209488	0.245735	0.205333
	C221	C	0.256718	0.230465	0.334709
	C222	C	0.243263	0.269583	0.165346
	C223	C	0.216981	0.226321	0.291048
	C224	C	0.283000	0.273731	0.209013
	H225	H	0.308692	0.292250	0.177209
	H226	H	0.191249	0.207902	0.322973
	H227	H	0.237637	0.284757	0.099340
	H228	H	0.262306	0.215375	0.400815
	C229	C	0.332744	0.258732	0.341037
	H230	H	0.357456	0.277842	0.305089
	C231	C	0.167167	0.241471	0.159246
	H232	H	0.142405	0.222516	0.195414
	C233	C	0.713340	0.242492	0.306224
	C234	C	0.786590	0.257499	0.193569
	C235	C	0.725222	0.284645	0.280529
	C236	C	0.774812	0.215360	0.219570
	C237	C	0.761116	0.292032	0.225336
	C238	C	0.738920	0.207973	0.274772
	H239	H	0.730303	0.175265	0.294194
	H240	H	0.769802	0.324748	0.206125
	H241	H	0.794421	0.188583	0.195515
	H242	H	0.705675	0.311431	0.304758
	C243	C	0.675297	0.234608	0.365161
	H244	H	0.668253	0.200714	0.382218
	C245	C	0.824847	0.265429	0.135287
	H246	H	0.831986	0.299344	0.118586
	C247	C	0.500000	0.250000	0.625000
	C248	C	0.496961	0.129265	0.789682
	C249	C	0.506636	0.366625	0.801896
	C250	C	0.379415	0.245254	0.460088
	C251	C	0.616685	0.258147	0.448489
	C252	C	0.504087	0.169405	0.831868
	C253	C	0.468727	0.356645	0.753554
	C254	C	0.419225	0.254643	0.418515
	C255	C	0.606832	0.219919	0.495803
	C256	C	0.505371	0.207604	0.780771
	C257	C	0.466132	0.319977	0.697846
	C258	C	0.457440	0.256066	0.469540
	C259	C	0.570152	0.216854	0.551374
	C260	C	0.499450	0.207814	0.685385
	C261	C	0.501149	0.291608	0.687122
	C262	C	0.457855	0.248949	0.564551
	C263	C	0.541636	0.251688	0.562988
	C264	C	0.490393	0.167696	0.644535
	C265	C	0.539337	0.302624	0.733750
	C266	C	0.417826	0.239497	0.605396
	C267	C	0.552523	0.290186	0.517372
	C268	C	0.489135	0.129381	0.695042
	C269	C	0.542178	0.339139	0.789664
	C270	C	0.379494	0.238095	0.554969
	C271	C	0.589046	0.293500	0.461598
	H272	H	0.508149	0.170584	0.905692
	H273	H	0.440920	0.377710	0.760991
	H274	H	0.420167	0.259914	0.345014
	H275	H	0.627998	0.192233	0.487667
	H276	H	0.510243	0.237766	0.816820
	H277	H	0.436237	0.313834	0.661693
	H278	H	0.487441	0.262174	0.433743
	H279	H	0.564127	0.186721	0.586706
	H280	H	0.484145	0.166720	0.571376
	H281	H	0.567347	0.281885	0.725738
	H282	H	0.416918	0.233212	0.678545
	H283	H	0.531685	0.318077	0.526054
	H284	H	0.481930	0.098939	0.661463
	H285	H	0.572121	0.346743	0.824811
	H286	H	0.349094	0.230795	0.588625
	H287	H	0.596543	0.323674	0.427244
	N288	N	0.494611	0.090653	0.840353
	N289	N	0.510053	0.404195	0.855768
	N290	N	0.340492	0.245183	0.410236
	N291	N	0.654261	0.262043	0.394779
