data_Molecule from CHK

_cell_length_a		30.922388
_cell_length_b		30.922388
_cell_length_c		6.247237
_cell_angle_alpha	90.000000
_cell_angle_beta	90.000000
_cell_angle_gamma	90.000000
_symmetry_space_group_name_H-M	'P 1'
_symmetry_Int_Tables_number		1

loop_
	_symmetry_equiv_pos_as_xyz
	x,y,z

loop_
	_atom_site_label
	_atom_site_type_symbol
	_atom_site_fract_x
	_atom_site_fract_y
	_atom_site_fract_z
	C0	C	0.000000	0.750000	0.625000
	C1	C	-0.003039	0.629265	1.009257
	C2	C	0.006636	0.866625	1.037757
	C3	C	-0.120585	0.745254	0.240205
	C4	C	0.116685	0.758147	0.213141
	C5	C	0.004087	0.669405	1.107691
	C6	C	-0.031273	0.856645	0.924960
	C7	C	-0.080775	0.754643	0.143202
	C8	C	0.106832	0.719919	0.323540
	C9	C	0.005371	0.707604	0.988465
	C10	C	-0.033868	0.819977	0.794974
	C11	C	-0.042560	0.756066	0.262260
	C12	C	0.070152	0.716854	0.453207
	C13	C	-0.000550	0.707814	0.765899
	C14	C	0.001149	0.791608	0.769951
	C15	C	-0.042145	0.748949	0.483952
	C16	C	0.041636	0.751688	0.480305
	C17	C	-0.009607	0.667696	0.670583
	C18	C	0.039337	0.802624	0.878750
	C19	C	-0.082174	0.739497	0.579256
	C20	C	0.052523	0.790186	0.373868
	C21	C	-0.010865	0.629381	0.788431
	C22	C	0.042178	0.839139	1.009216
	C23	C	-0.120506	0.738095	0.461593
	C24	C	0.089046	0.793500	0.243728
	H25	H	0.008149	0.670584	1.279948
	H26	H	-0.059080	0.877710	0.942312
	H27	H	-0.079833	0.759914	-0.028301
	H28	H	0.127998	0.692233	0.304555
	H29	H	0.010243	0.737766	1.072581
	H30	H	-0.063763	0.813834	0.710617
	H31	H	-0.012559	0.762174	0.178734
	H32	H	0.064127	0.686721	0.535648
	H33	H	-0.015855	0.666720	0.499878
	H34	H	0.067347	0.781885	0.860054
	H35	H	-0.083082	0.733212	0.749939
	H36	H	0.031685	0.818077	0.394126
	H37	H	-0.018070	0.598939	0.710079
	H38	H	0.072121	0.846743	1.091226
	H39	H	-0.150906	0.730795	0.540125
	H40	H	0.096543	0.823674	0.163570
	N41	N	-0.005389	0.590653	1.127490
	N42	N	0.010053	0.904195	1.163459
	N43	N	-0.159508	0.745183	0.123884
	N44	N	0.154261	0.762043	0.087817
	C45	C	0.287073	0.757519	0.621702
	C46	C	0.212858	0.742486	0.877812
	C47	C	0.272453	0.715292	0.662493
	C48	C	0.227579	0.784705	0.837742
	C49	C	0.236092	0.707893	0.788003
	C50	C	0.263944	0.792105	0.712248
	H51	H	0.274858	0.824874	0.683008
	H52	H	0.225249	0.675118	0.817730
	H53	H	0.209869	0.811533	0.907159
	H54	H	0.290221	0.688458	0.593505
	C55	C	0.325806	0.765422	0.489013
	H56	H	0.335123	0.799377	0.465121
	C57	C	0.174346	0.734549	1.012012
	H58	H	0.165156	0.700579	1.036627
	C59	C	0.709175	0.746658	0.647967
	C60	C	0.790855	0.753234	0.851820
	C61	C	0.744757	0.765110	0.542020
	C62	C	0.755229	0.734942	0.958083
	C63	C	0.784795	0.768353	0.641794
	C64	C	0.715189	0.731703	0.858316
	H65	H	0.688053	0.717516	0.942632
	H66	H	0.811900	0.782650	0.557685
	H67	H	0.759664	0.723340	1.120435
	H68	H	0.740300	0.776806	0.379853
	C69	C	0.666566	0.743340	0.542415
	H70	H	0.640411	0.728556	0.636387
	C71	C	0.833376	0.756900	0.957960
	H72	H	0.859470	0.771860	0.864247
	C73	C	0.003720	0.540709	0.397156
	C74	C	-0.003824	0.459326	0.603086
	C75	C	-0.017492	0.505974	0.297140
	C76	C	0.017541	0.494008	0.702745
	C77	C	-0.021199	0.466079	0.397913
	C78	C	0.021253	0.533903	0.601960
	H79	H	0.037846	0.560301	0.681107
	H80	H	-0.037688	0.439647	0.318513
	H81	H	0.031140	0.488960	0.860805
	H82	H	-0.031001	0.510988	0.138871
	C83	C	0.007826	0.583076	0.289909
	H84	H	0.024937	0.608516	0.378879
	C85	C	-0.007613	0.416843	0.709490
	H86	H	-0.024560	0.391359	0.620051
	C87	C	0.007521	0.036841	0.629922
	C88	C	-0.007523	-0.036910	0.370564
	C89	C	-0.034737	0.023524	0.580010
	C90	C	0.034737	-0.023492	0.419755
	C91	C	-0.042141	-0.012609	0.452902
	C92	C	0.042142	0.012645	0.546848
	H93	H	0.074944	0.022548	0.583167
	H94	H	-0.074942	-0.022440	0.416095
	H95	H	0.061592	-0.042030	0.356134
	H96	H	-0.061593	0.042120	0.643202
	C97	C	0.015438	0.075330	0.764319
	H98	H	0.049422	0.083599	0.795546
	C99	C	-0.015454	-0.075177	0.234651
	H100	H	-0.049442	-0.083320	0.202700
	C101	C	0.500000	0.750000	0.875000
	C102	C	0.383219	0.743006	1.286937
	C103	C	0.502665	0.870595	0.490035
	C104	C	0.492305	0.632364	0.469561
	C105	C	0.621253	0.753579	1.254884
	C106	C	0.392791	0.780702	1.171389
	C107	C	0.494835	0.830537	0.392285
	C108	C	0.530762	0.643106	0.576035
	C109	C	0.581441	0.745310	1.354197
	C110	C	0.429564	0.783411	1.042186
	C111	C	0.493773	0.792336	0.511543
	C112	C	0.533573	0.679934	0.704808
	C113	C	0.543045	0.743961	1.236543
	C114	C	0.458504	0.748760	1.020729
	C115	C	0.500671	0.792085	0.733394
	C116	C	0.498551	0.708252	0.731169
	C117	C	0.542332	0.750991	1.014818
	C118	C	0.447533	0.710556	1.129439
	C119	C	0.509730	0.832230	0.828495
	C120	C	0.460196	0.697126	0.624152
	C121	C	0.582230	0.760479	0.918179
	C122	C	0.410911	0.707605	1.259140
	C123	C	0.510770	0.870546	0.710635
	C124	C	0.457138	0.660451	0.494895
	C125	C	0.620740	0.761806	1.034414
	H126	H	0.370803	0.807930	1.181476
	H127	H	0.488985	0.829645	0.221234
	H128	H	0.558369	0.621712	0.560883
	H129	H	0.580893	0.739338	1.525182
	H130	H	0.435065	0.812944	0.953670
	H131	H	0.487805	0.762266	0.428408
	H132	H	0.563559	0.686056	0.788432
	H133	H	0.513188	0.737659	1.320923
	H134	H	0.468307	0.682558	1.110989
	H135	H	0.516037	0.833195	0.999118
	H136	H	0.432217	0.717914	0.642968
	H137	H	0.582863	0.766899	0.747626
	H138	H	0.403280	0.677588	1.340470
	H139	H	0.517828	0.901035	0.788823
	H140	H	0.427069	0.652819	0.414044
	H141	H	0.651027	0.769190	0.955040
	N142	N	0.345848	0.739416	1.413855
	N143	N	0.505201	0.909046	0.370500
	N144	N	0.489425	0.596250	0.333580
	N145	N	0.659892	0.756412	1.372763
	C146	C	0.000000	0.250000	0.375000
	C147	C	-0.006994	0.133219	-0.036937
	C148	C	0.120595	0.252665	0.759965
	C149	C	-0.117636	0.242305	0.780439
	C150	C	0.003579	0.371253	-0.004884
	C151	C	0.030702	0.142791	0.078611
	C152	C	0.080537	0.244835	0.857715
	C153	C	-0.106894	0.280762	0.673965
	C154	C	-0.004690	0.331441	-0.104197
	C155	C	0.033411	0.179564	0.207814
	C156	C	0.042336	0.243773	0.738457
	C157	C	-0.070066	0.283573	0.545192
	C158	C	-0.006039	0.293045	0.013457
	C159	C	-0.001240	0.208504	0.229271
	C160	C	0.042085	0.250671	0.516606
	C161	C	-0.041748	0.248551	0.518831
	C162	C	0.000991	0.292332	0.235182
	C163	C	-0.039444	0.197533	0.120561
	C164	C	0.082230	0.259730	0.421505
	C165	C	-0.052874	0.210196	0.625848
	C166	C	0.010479	0.332230	0.331821
	C167	C	-0.042395	0.160911	-0.009140
	C168	C	0.120546	0.260770	0.539365
	C169	C	-0.089549	0.207138	0.755105
	C170	C	0.011806	0.370740	0.215586
	H171	H	0.057930	0.120803	0.068524
	H172	H	0.079645	0.238985	1.028766
	H173	H	-0.128288	0.308369	0.689117
	H174	H	-0.010662	0.330893	-0.275182
	H175	H	0.062944	0.185065	0.296330
	H176	H	0.012266	0.237805	0.821592
	H177	H	-0.063944	0.313559	0.461568
	H178	H	-0.012341	0.263188	-0.070923
	H179	H	-0.067442	0.218307	0.139011
	H180	H	0.083195	0.266037	0.250882
	H181	H	-0.032086	0.182217	0.607032
	H182	H	0.016899	0.332863	0.502374
	H183	H	-0.072412	0.153280	-0.090470
	H184	H	0.151035	0.267828	0.461177
	H185	H	-0.097181	0.177069	0.835956
	H186	H	0.019190	0.401027	0.294960
	N187	N	-0.010584	0.095848	-0.163855
	N188	N	0.159046	0.255201	0.879500
	N189	N	-0.153750	0.239425	0.916420
	N190	N	0.006412	0.409892	-0.122763
	C191	C	0.492561	0.463711	0.866211
	C192	C	0.507420	0.536220	1.134267
	C193	C	0.534297	0.473509	0.940757
	C194	C	0.465712	0.526524	1.059015
	C195	C	0.541612	0.509037	1.072097
	C196	C	0.458398	0.490998	0.927653
	H197	H	0.426026	0.483998	0.871014
	H198	H	0.574003	0.516106	1.128247
	H199	H	0.439212	0.547458	1.105876
	H200	H	0.560816	0.452638	0.893494
	C201	C	0.484767	0.426058	0.725964
	H202	H	0.451214	0.420690	0.674434
	C203	C	0.515292	0.574083	1.273007
	H204	H	0.548883	0.579546	1.323718
	C205	C	0.503349	1.040823	-0.102046
	C206	C	0.496544	0.959208	0.102264
	C207	C	0.484212	1.005437	-0.206619
	C208	C	0.515839	0.994547	0.206516
	C209	C	0.480869	0.965428	-0.106643
	C210	C	0.519187	1.034556	0.106529
	H211	H	0.534173	1.061463	0.189243
	H212	H	0.465990	0.938490	-0.189587
	H213	H	0.528122	0.989917	0.367500
	H214	H	0.472021	1.010036	-0.367792
	C215	C	0.507070	1.083317	-0.208408
	H216	H	0.522514	1.109282	-0.115760
	C217	C	0.493151	0.916610	0.207857
	H218	H	0.477876	0.890606	0.114776
	C219	C	0.290624	0.253968	0.353439
	C220	C	0.209413	0.245931	0.146303
	C221	C	0.256374	0.231372	0.450063
	C222	C	0.243608	0.268677	0.050059
	C223	C	0.216563	0.227421	0.348698
	C224	C	0.283418	0.272631	0.151437
	H225	H	0.309437	0.290296	0.074943
	H226	H	0.190508	0.209859	0.425462
	H227	H	0.238249	0.283152	-0.105828
	H228	H	0.261696	0.216983	0.606172
	C229	C	0.332898	0.258330	0.461342
	H230	H	0.357947	0.276553	0.375107
	C231	C	0.167017	0.241878	0.039291
	H232	H	0.141921	0.223814	0.126021
	C233	C	0.713340	0.242492	0.381190
	C234	C	0.786590	0.257499	0.118328
	C235	C	0.725222	0.284645	0.321234
	C236	C	0.774812	0.215360	0.178996
	C237	C	0.761116	0.292032	0.192451
	C238	C	0.738920	0.207973	0.307801
	H239	H	0.730303	0.175265	0.353120
	H240	H	0.769802	0.324748	0.147626
	H241	H	0.794421	0.188583	0.122868
	H242	H	0.705675	0.311431	0.377769
	C243	C	0.675297	0.234608	0.518709
	H244	H	0.668253	0.200714	0.558508
	C245	C	0.824847	0.265429	-0.017663
	H246	H	0.831986	0.299344	-0.056633
	C247	C	0.500000	0.250000	0.125000
	C248	C	0.379265	0.246961	-0.259257
	C249	C	0.616625	0.256636	-0.287757
	C250	C	0.495254	0.129415	0.509795
	C251	C	0.508147	0.366685	0.536859
	C252	C	0.419405	0.254087	-0.357691
	C253	C	0.606645	0.218727	-0.174960
	C254	C	0.504643	0.169225	0.606798
	C255	C	0.469919	0.356832	0.426460
	C256	C	0.457604	0.255371	-0.238465
	C257	C	0.569977	0.216132	-0.044974
	C258	C	0.506066	0.207440	0.487740
	C259	C	0.466854	0.320152	0.296793
	C260	C	0.457814	0.249450	-0.015899
	C261	C	0.541608	0.251149	-0.019951
	C262	C	0.498949	0.207855	0.266048
	C263	C	0.501688	0.291636	0.269695
	C264	C	0.417696	0.240393	0.079417
	C265	C	0.552624	0.289337	-0.128750
	C266	C	0.489497	0.167826	0.170744
	C267	C	0.540186	0.302523	0.376132
	C268	C	0.379381	0.239135	-0.038431
	C269	C	0.589139	0.292178	-0.259216
	C270	C	0.488095	0.129494	0.288407
	C271	C	0.543500	0.339046	0.506272
	H272	H	0.420584	0.258149	-0.529948
	H273	H	0.627710	0.190920	-0.192312
	H274	H	0.509914	0.170167	0.778301
	H275	H	0.442233	0.377998	0.445445
	H276	H	0.487766	0.260243	-0.322581
	H277	H	0.563834	0.186237	0.039383
	H278	H	0.512174	0.237441	0.571266
	H279	H	0.436721	0.314127	0.214352
	H280	H	0.416720	0.234145	0.250122
	H281	H	0.531885	0.317347	-0.110054
	H282	H	0.483212	0.166918	0.000061
	H283	H	0.568077	0.281685	0.355874
	H284	H	0.348939	0.231930	0.039921
	H285	H	0.596743	0.322121	-0.341226
	H286	H	0.480795	0.099094	0.209875
	H287	H	0.573674	0.346543	0.586430
	N288	N	0.340653	0.244611	-0.377490
	N289	N	0.654195	0.260053	-0.413459
	N290	N	0.495183	0.090492	0.626116
	N291	N	0.512043	0.404261	0.662183
