data_Molecule from CHK

_cell_length_a		30.922388
_cell_length_b		30.922388
_cell_length_c		5.466332
_cell_angle_alpha	90.000000
_cell_angle_beta	90.000000
_cell_angle_gamma	90.000000
_symmetry_space_group_name_H-M	'P 1'
_symmetry_Int_Tables_number		1

loop_
	_symmetry_equiv_pos_as_xyz
	x,y,z

loop_
	_atom_site_label
	_atom_site_type_symbol
	_atom_site_fract_x
	_atom_site_fract_y
	_atom_site_fract_z
	C0	C	0.000000	0.750000	1.000000
	C1	C	-0.003039	0.629265	1.439151
	C2	C	0.006636	0.866625	1.471723
	C3	C	-0.120585	0.745254	0.560234
	C4	C	0.116685	0.758147	0.529304
	C5	C	0.004087	0.669405	1.551647
	C6	C	-0.031273	0.856645	1.342811
	C7	C	-0.080775	0.754643	0.449373
	C8	C	0.106832	0.719919	0.655475
	C9	C	0.005371	0.707604	1.415389
	C10	C	-0.033868	0.819977	1.194256
	C11	C	-0.042560	0.756066	0.585440
	C12	C	0.070152	0.716854	0.803665
	C13	C	-0.000550	0.707814	1.161028
	C14	C	0.001149	0.791608	1.165658
	C15	C	-0.042145	0.748949	0.838803
	C16	C	0.041636	0.751688	0.834635
	C17	C	-0.009607	0.667696	1.052095
	C18	C	0.039337	0.802624	1.290000
	C19	C	-0.082174	0.739497	0.947721
	C20	C	0.052523	0.790186	0.712992
	C21	C	-0.010865	0.629381	1.186779
	C22	C	0.042178	0.839139	1.439104
	C23	C	-0.120506	0.738095	0.813250
	C24	C	0.089046	0.793500	0.564261
	H25	H	0.008149	0.670584	1.748512
	H26	H	-0.059080	0.877710	1.362643
	H27	H	-0.079833	0.759914	0.253370
	H28	H	0.127998	0.692233	0.633777
	H29	H	0.010243	0.737766	1.511521
	H30	H	-0.063763	0.813834	1.097848
	H31	H	-0.012559	0.762174	0.489982
	H32	H	0.064127	0.686721	0.897883
	H33	H	-0.015855	0.666720	0.857003
	H34	H	0.067347	0.781885	1.268633
	H35	H	-0.083082	0.733212	1.142788
	H36	H	0.031685	0.818077	0.736144
	H37	H	-0.018070	0.598939	1.097234
	H38	H	0.072121	0.846743	1.532830
	H39	H	-0.150906	0.730795	0.903000
	H40	H	0.096543	0.823674	0.472651
	N41	N	-0.005389	0.590653	1.574275
	N42	N	0.010053	0.904195	1.615382
	N43	N	-0.159508	0.745183	0.427296
	N44	N	0.154261	0.762043	0.386077
	C45	C	0.287073	0.757519	0.853373
	C46	C	0.212858	0.742486	1.146071
	C47	C	0.272453	0.715292	0.899992
	C48	C	0.227579	0.784705	1.100277
	C49	C	0.236092	0.707893	1.043432
	C50	C	0.263944	0.792105	0.956855
	H51	H	0.274858	0.824874	0.923437
	H52	H	0.225249	0.675118	1.077406
	H53	H	0.209869	0.811533	1.179610
	H54	H	0.290221	0.688458	0.821148
	C55	C	0.325806	0.765422	0.701729
	H56	H	0.335123	0.799377	0.674424
	C57	C	0.174346	0.734549	1.299443
	H58	H	0.165156	0.700579	1.327573
	C59	C	0.709175	0.746658	0.883391
	C60	C	0.790855	0.753234	1.116365
	C61	C	0.744757	0.765110	0.762309
	C62	C	0.755229	0.734942	1.237810
	C63	C	0.784795	0.768353	0.876336
	C64	C	0.715189	0.731703	1.123789
	H65	H	0.688053	0.717516	1.220151
	H66	H	0.811900	0.782650	0.780211
	H67	H	0.759664	0.723340	1.423354
	H68	H	0.740300	0.776806	0.576975
	C69	C	0.666566	0.743340	0.762760
	H70	H	0.640411	0.728556	0.870157
	C71	C	0.833376	0.756900	1.237668
	H72	H	0.859470	0.771860	1.130568
	C73	C	-0.003605	0.459254	1.117242
	C74	C	0.003500	0.540778	0.883022
	C75	C	0.016331	0.494399	1.234827
	C76	C	-0.016280	0.505586	0.765044
	C77	C	0.019834	0.534360	1.120187
	C78	C	-0.019779	0.465623	0.879678
	H79	H	-0.035122	0.438822	0.786006
	H80	H	0.035284	0.561126	1.213601
	H81	H	-0.028828	0.510295	0.581699
	H82	H	0.028971	0.489665	1.417945
	C83	C	-0.007204	0.416723	1.238503
	H84	H	-0.023183	0.390919	1.133907
	C85	C	0.007440	0.583212	0.761026
	H86	H	0.023592	0.608952	0.865293
	C87	C	0.007517	0.036771	1.149045
	C88	C	-0.007521	-0.036840	0.851510
	C89	C	-0.034726	0.023849	1.088839
	C90	C	0.034727	-0.023817	0.910892
	C91	C	-0.042128	-0.012214	0.943018
	C92	C	0.042130	0.012251	1.056696
	H93	H	0.074922	0.021846	1.100659
	H94	H	-0.074918	-0.021739	0.898497
	H95	H	0.061576	-0.042607	0.840193
	H96	H	-0.061574	0.042697	1.159047
	C97	C	0.015435	0.075185	1.303235
	H98	H	0.049407	0.083136	1.341467
	C99	C	-0.015446	-0.075033	0.695587
	H100	H	-0.049420	-0.082857	0.656527
	C101	C	0.500000	0.750000	1.000000
	C102	C	0.383219	0.743006	1.470785
	C103	C	0.502665	0.870595	0.560040
	C104	C	0.492305	0.632364	0.536641
	C105	C	0.621253	0.753579	1.434153
	C106	C	0.392791	0.780702	1.338731
	C107	C	0.494835	0.830537	0.448326
	C108	C	0.530762	0.643106	0.658326
	C109	C	0.581441	0.745310	1.547653
	C110	C	0.429564	0.783411	1.191070
	C111	C	0.493773	0.792336	0.584621
	C112	C	0.533573	0.679934	0.805494
	C113	C	0.543045	0.743961	1.413192
	C114	C	0.458504	0.748760	1.166547
	C115	C	0.500671	0.792085	0.838165
	C116	C	0.498551	0.708252	0.835622
	C117	C	0.542332	0.750991	1.159792
	C118	C	0.447533	0.710556	1.290788
	C119	C	0.509730	0.832230	0.946852
	C120	C	0.460196	0.697126	0.713316
	C121	C	0.582230	0.760479	1.049347
	C122	C	0.410911	0.707605	1.439017
	C123	C	0.510770	0.870546	0.812155
	C124	C	0.457138	0.660451	0.565594
	C125	C	0.620740	0.761806	1.182188
	H126	H	0.370803	0.807930	1.350259
	H127	H	0.488985	0.829645	0.252838
	H128	H	0.558369	0.621712	0.641009
	H129	H	0.580893	0.739338	1.743065
	H130	H	0.435065	0.812944	1.089909
	H131	H	0.487805	0.762266	0.489609
	H132	H	0.563559	0.686056	0.901065
	H133	H	0.513188	0.737659	1.509626
	H134	H	0.468307	0.682558	1.269701
	H135	H	0.516037	0.833195	1.141849
	H136	H	0.432217	0.717914	0.734821
	H137	H	0.582863	0.766899	0.854429
	H138	H	0.403280	0.677588	1.531965
	H139	H	0.517828	0.901035	0.901512
	H140	H	0.427069	0.652819	0.473193
	H141	H	0.651027	0.769190	1.091474
	N142	N	0.345848	0.739416	1.615835
	N143	N	0.505201	0.909046	0.423429
	N144	N	0.489425	0.596250	0.381234
	N145	N	0.659892	0.756412	1.568872
	C146	C	0.000000	0.250000	1.000000
	C147	C	-0.006994	0.133219	0.529215
	C148	C	0.120595	0.252665	1.439960
	C149	C	-0.117636	0.242305	1.463359
	C150	C	0.003579	0.371253	0.565847
	C151	C	0.030702	0.142791	0.661269
	C152	C	0.080537	0.244835	1.551674
	C153	C	-0.106894	0.280762	1.341674
	C154	C	-0.004690	0.331441	0.452347
	C155	C	0.033411	0.179564	0.808930
	C156	C	0.042336	0.243773	1.415379
	C157	C	-0.070066	0.283573	1.194506
	C158	C	-0.006039	0.293045	0.586808
	C159	C	-0.001240	0.208504	0.833453
	C160	C	0.042085	0.250671	1.161835
	C161	C	-0.041748	0.248551	1.164378
	C162	C	0.000991	0.292332	0.840208
	C163	C	-0.039444	0.197533	0.709212
	C164	C	0.082230	0.259730	1.053148
	C165	C	-0.052874	0.210196	1.286684
	C166	C	0.010479	0.332230	0.950653
	C167	C	-0.042395	0.160911	0.560983
	C168	C	0.120546	0.260770	1.187845
	C169	C	-0.089549	0.207138	1.434406
	C170	C	0.011806	0.370740	0.817812
	H171	H	0.057930	0.120803	0.649741
	H172	H	0.079645	0.238985	1.747162
	H173	H	-0.128288	0.308369	1.358991
	H174	H	-0.010662	0.330893	0.256935
	H175	H	0.062944	0.185065	0.910091
	H176	H	0.012266	0.237805	1.510391
	H177	H	-0.063944	0.313559	1.098935
	H178	H	-0.012341	0.263188	0.490374
	H179	H	-0.067442	0.218307	0.730299
	H180	H	0.083195	0.266037	0.858151
	H181	H	-0.032086	0.182217	1.265179
	H182	H	0.016899	0.332863	1.145571
	H183	H	-0.072412	0.153280	0.468035
	H184	H	0.151035	0.267828	1.098488
	H185	H	-0.097181	0.177069	1.526807
	H186	H	0.019190	0.401027	0.908526
	N187	N	-0.010584	0.095848	0.384165
	N188	N	0.159046	0.255201	1.576571
	N189	N	-0.153750	0.239425	1.618766
	N190	N	0.006412	0.409892	0.431128
	C191	C	0.492511	0.463479	0.848958
	C192	C	0.507476	0.536452	1.151593
	C193	C	0.534545	0.474581	0.923717
	C194	C	0.465461	0.525453	1.076020
	C195	C	0.541911	0.510338	1.071991
	C196	C	0.458095	0.489697	0.927721
	H197	H	0.425485	0.481685	0.871087
	H198	H	0.574535	0.518419	1.128063
	H199	H	0.438765	0.545557	1.136203
	H200	H	0.561255	0.454539	0.863071
	C201	C	0.484654	0.425582	0.690626
	H202	H	0.450858	0.419165	0.640125
	C203	C	0.515391	0.574561	1.308185
	H204	H	0.549214	0.581073	1.357742
	C205	C	0.504346	1.040479	-0.119377
	C206	C	0.495556	0.959562	0.119700
	C207	C	0.479635	1.007054	-0.223200
	C208	C	0.520412	0.992926	0.223047
	C209	C	0.475313	0.967388	-0.106199
	C210	C	0.524737	1.032591	0.106030
	H211	H	0.544039	1.057965	0.188292
	H212	H	0.456110	0.941974	-0.188797
	H213	H	0.536227	0.987039	0.396975
	H214	H	0.463903	1.012902	-0.397406
	C215	C	0.509100	1.082594	-0.243966
	H216	H	0.529022	1.106977	-0.150738
	C217	C	0.491098	0.917314	0.243186
	H218	H	0.471328	0.892878	0.149349
	C219	C	0.290624	0.253968	1.118216
	C220	C	0.209413	0.245931	0.881489
	C221	C	0.256374	0.231372	1.228644
	C222	C	0.243608	0.268677	0.771496
	C223	C	0.216563	0.227421	1.112798
	C224	C	0.283418	0.272631	0.887357
	H225	H	0.309437	0.290296	0.799935
	H226	H	0.190508	0.209859	1.200528
	H227	H	0.238249	0.283152	0.593340
	H228	H	0.261696	0.216983	1.407054
	C229	C	0.332898	0.258330	1.241533
	H230	H	0.357947	0.276553	1.142980
	C231	C	0.167017	0.241878	0.759190
	H232	H	0.141921	0.223814	0.858309
	C233	C	0.713205	0.242481	1.148847
	C234	C	0.786726	0.257514	0.850600
	C235	C	0.725848	0.284708	1.086414
	C236	C	0.774186	0.215295	0.913849
	C237	C	0.761875	0.292107	0.940301
	C238	C	0.738161	0.207895	1.059988
	H239	H	0.728953	0.175126	1.107057
	H240	H	0.771151	0.324882	0.893797
	H241	H	0.793312	0.188467	0.845836
	H242	H	0.706784	0.311542	1.154894
	C243	C	0.675020	0.234578	1.304873
	H244	H	0.667363	0.200623	1.345461
	C245	C	0.825125	0.265451	0.696327
	H246	H	0.832877	0.299421	0.656688
	C247	C	0.500000	0.250000	1.000000
	C248	C	0.496961	0.129265	1.439151
	C249	C	0.506636	0.366625	1.471723
	C250	C	0.379415	0.245254	0.560234
	C251	C	0.616685	0.258147	0.529304
	C252	C	0.504087	0.169405	1.551647
	C253	C	0.468727	0.356645	1.342811
	C254	C	0.419225	0.254643	0.449373
	C255	C	0.606832	0.219919	0.655475
	C256	C	0.505371	0.207604	1.415389
	C257	C	0.466132	0.319977	1.194256
	C258	C	0.457440	0.256066	0.585440
	C259	C	0.570152	0.216854	0.803665
	C260	C	0.499450	0.207814	1.161028
	C261	C	0.501149	0.291608	1.165658
	C262	C	0.457855	0.248949	0.838803
	C263	C	0.541636	0.251688	0.834635
	C264	C	0.490393	0.167696	1.052095
	C265	C	0.539337	0.302624	1.290000
	C266	C	0.417826	0.239497	0.947721
	C267	C	0.552523	0.290186	0.712992
	C268	C	0.489135	0.129381	1.186779
	C269	C	0.542178	0.339139	1.439104
	C270	C	0.379494	0.238095	0.813250
	C271	C	0.589046	0.293500	0.564261
	H272	H	0.508149	0.170584	1.748512
	H273	H	0.440920	0.377710	1.362643
	H274	H	0.420167	0.259914	0.253370
	H275	H	0.627998	0.192233	0.633777
	H276	H	0.510243	0.237766	1.511521
	H277	H	0.436237	0.313834	1.097848
	H278	H	0.487441	0.262174	0.489982
	H279	H	0.564127	0.186721	0.897883
	H280	H	0.484145	0.166720	0.857003
	H281	H	0.567347	0.281885	1.268633
	H282	H	0.416918	0.233212	1.142788
	H283	H	0.531685	0.318077	0.736144
	H284	H	0.481930	0.098939	1.097234
	H285	H	0.572121	0.346743	1.532830
	H286	H	0.349094	0.230795	0.903000
	H287	H	0.596543	0.323674	0.472651
	N288	N	0.494611	0.090653	1.574275
	N289	N	0.510053	0.404195	1.615382
	N290	N	0.340492	0.245183	0.427296
	N291	N	0.654261	0.262043	0.386077
