data_Molecule from CHK

_cell_length_a		30.922388
_cell_length_b		30.922388
_cell_length_c		8.746131
_cell_angle_alpha	90.000000
_cell_angle_beta	90.000000
_cell_angle_gamma	90.000000
_symmetry_space_group_name_H-M	'P 1'
_symmetry_Int_Tables_number		1

loop_
	_symmetry_equiv_pos_as_xyz
	x,y,z

loop_
	_atom_site_label
	_atom_site_type_symbol
	_atom_site_fract_x
	_atom_site_fract_y
	_atom_site_fract_z
	C0	C	0.000000	0.750000	0.875000
	C1	C	-0.003039	0.629265	1.149469
	C2	C	0.006636	0.866625	1.169827
	C3	C	-0.120585	0.745254	0.600146
	C4	C	0.116685	0.758147	0.580815
	C5	C	0.004087	0.669405	1.219779
	C6	C	-0.031273	0.856645	1.089257
	C7	C	-0.080775	0.754643	0.530858
	C8	C	0.106832	0.719919	0.659672
	C9	C	0.005371	0.707604	1.134618
	C10	C	-0.033868	0.819977	0.996410
	C11	C	-0.042560	0.756066	0.615900
	C12	C	0.070152	0.716854	0.752290
	C13	C	-0.000550	0.707814	0.975642
	C14	C	0.001149	0.791608	0.978536
	C15	C	-0.042145	0.748949	0.774252
	C16	C	0.041636	0.751688	0.771647
	C17	C	-0.009607	0.667696	0.907559
	C18	C	0.039337	0.802624	1.056250
	C19	C	-0.082174	0.739497	0.842326
	C20	C	0.052523	0.790186	0.695620
	C21	C	-0.010865	0.629381	0.991737
	C22	C	0.042178	0.839139	1.149440
	C23	C	-0.120506	0.738095	0.758281
	C24	C	0.089046	0.793500	0.602663
	H25	H	0.008149	0.670584	1.342820
	H26	H	-0.059080	0.877710	1.101652
	H27	H	-0.079833	0.759914	0.408356
	H28	H	0.127998	0.692233	0.646111
	H29	H	0.010243	0.737766	1.194700
	H30	H	-0.063763	0.813834	0.936155
	H31	H	-0.012559	0.762174	0.556239
	H32	H	0.064127	0.686721	0.811177
	H33	H	-0.015855	0.666720	0.785627
	H34	H	0.067347	0.781885	1.042896
	H35	H	-0.083082	0.733212	0.964242
	H36	H	0.031685	0.818077	0.710090
	H37	H	-0.018070	0.598939	0.935771
	H38	H	0.072121	0.846743	1.208018
	H39	H	-0.150906	0.730795	0.814375
	H40	H	0.096543	0.823674	0.545407
	N41	N	-0.005389	0.590653	1.233922
	N42	N	0.010053	0.904195	1.259614
	N43	N	-0.159508	0.745183	0.517060
	N44	N	0.154261	0.762043	0.491298
	C45	C	0.287073	0.757519	0.158358
	C46	C	0.212858	0.742486	0.341295
	C47	C	0.272453	0.715292	0.187495
	C48	C	0.227579	0.784705	0.312673
	C49	C	0.236092	0.707893	0.277145
	C50	C	0.263944	0.792105	0.223034
	H51	H	0.274858	0.824874	0.202148
	H52	H	0.225249	0.675118	0.298379
	H53	H	0.209869	0.811533	0.362256
	H54	H	0.290221	0.688458	0.138218
	C55	C	0.325806	0.765422	0.063580
	H56	H	0.335123	0.799377	0.046515
	C57	C	0.174346	0.734549	0.437152
	H58	H	0.165156	0.700579	0.454733
	C59	C	0.709117	0.746869	0.177411
	C60	C	0.790911	0.753021	0.322447
	C61	C	0.745020	0.764127	0.100127
	C62	C	0.754967	0.735925	0.399942
	C63	C	0.785115	0.767161	0.171111
	C64	C	0.714870	0.732896	0.328962
	H65	H	0.687487	0.719637	0.390423
	H66	H	0.812469	0.780531	0.109789
	H67	H	0.759200	0.725084	0.516918
	H68	H	0.740767	0.775064	-0.016725
	C69	C	0.666450	0.743777	0.102305
	H70	H	0.640038	0.729955	0.170715
	C71	C	0.833496	0.756466	0.397941
	H72	H	0.859851	0.770467	0.329700
	C73	C	-0.003608	0.459255	0.573281
	C74	C	0.003503	0.540778	0.426884
	C75	C	0.016345	0.494395	0.646746
	C76	C	-0.016294	0.505590	0.353173
	C77	C	0.019850	0.534355	0.575091
	C78	C	-0.019795	0.465628	0.424824
	H79	H	-0.035151	0.438831	0.366298
	H80	H	0.035313	0.561118	0.633456
	H81	H	-0.028852	0.510303	0.238598
	H82	H	0.028995	0.489658	0.761179
	C83	C	-0.007210	0.416725	0.649073
	H84	H	-0.023202	0.390925	0.583722
	C85	C	0.007446	0.583210	0.350632
	H86	H	0.023611	0.608946	0.415778
	C87	C	0.007505	1.037233	0.590839
	C88	C	-0.007496	0.962698	0.409507
	C89	C	-0.034629	1.021712	0.566210
	C90	C	0.034625	0.978320	0.433622
	C91	C	-0.042013	0.985193	0.477350
	C92	C	0.042008	1.014843	0.522471
	H93	H	0.074701	1.026457	0.539859
	H94	H	-0.074716	0.973650	0.459615
	H95	H	0.061389	0.961182	0.381175
	H96	H	-0.061404	1.038907	0.618352
	C97	C	0.015385	1.076135	0.684773
	H98	H	0.049264	1.086177	0.698214
	C99	C	-0.015424	0.924016	0.314498
	H100	H	-0.049324	0.914100	0.300543
	C101	C	0.500000	0.750000	0.625000
	C102	C	0.383219	0.743006	0.919241
	C103	C	0.502665	0.870595	0.350025
	C104	C	0.492305	0.632364	0.335401
	C105	C	0.621253	0.753579	0.896346
	C106	C	0.392791	0.780702	0.836707
	C107	C	0.494835	0.830537	0.280204
	C108	C	0.530762	0.643106	0.411454
	C109	C	0.581441	0.745310	0.967283
	C110	C	0.429564	0.783411	0.744419
	C111	C	0.493773	0.792336	0.365388
	C112	C	0.533573	0.679934	0.503434
	C113	C	0.543045	0.743961	0.883245
	C114	C	0.458504	0.748760	0.729092
	C115	C	0.500671	0.792085	0.523853
	C116	C	0.498551	0.708252	0.522264
	C117	C	0.542332	0.750991	0.724870
	C118	C	0.447533	0.710556	0.806742
	C119	C	0.509730	0.832230	0.591782
	C120	C	0.460196	0.697126	0.445823
	C121	C	0.582230	0.760479	0.655842
	C122	C	0.410911	0.707605	0.899386
	C123	C	0.510770	0.870546	0.507597
	C124	C	0.457138	0.660451	0.353496
	C125	C	0.620740	0.761806	0.738867
	H126	H	0.370803	0.807930	0.843912
	H127	H	0.488985	0.829645	0.158024
	H128	H	0.558369	0.621712	0.400631
	H129	H	0.580893	0.739338	1.089416
	H130	H	0.435065	0.812944	0.681193
	H131	H	0.487805	0.762266	0.306006
	H132	H	0.563559	0.686056	0.563165
	H133	H	0.513188	0.737659	0.943516
	H134	H	0.468307	0.682558	0.793563
	H135	H	0.516037	0.833195	0.713655
	H136	H	0.432217	0.717914	0.459263
	H137	H	0.582863	0.766899	0.534018
	H138	H	0.403280	0.677588	0.957478
	H139	H	0.517828	0.901035	0.563445
	H140	H	0.427069	0.652819	0.295746
	H141	H	0.651027	0.769190	0.682171
	N142	N	0.345848	0.739416	1.009897
	N143	N	0.505201	0.909046	0.264643
	N144	N	0.489425	0.596250	0.238271
	N145	N	0.659892	0.756412	0.980545
	C146	C	0.000000	0.250000	0.125000
	C147	C	-0.006994	0.133219	-0.169241
	C148	C	0.120595	0.252665	0.399975
	C149	C	-0.117636	0.242305	0.414599
	C150	C	0.003579	0.371253	-0.146346
	C151	C	0.030702	0.142791	-0.086707
	C152	C	0.080537	0.244835	0.469796
	C153	C	-0.106894	0.280762	0.338546
	C154	C	-0.004690	0.331441	-0.217283
	C155	C	0.033411	0.179564	0.005581
	C156	C	0.042336	0.243773	0.384612
	C157	C	-0.070066	0.283573	0.246566
	C158	C	-0.006039	0.293045	-0.133245
	C159	C	-0.001240	0.208504	0.020908
	C160	C	0.042085	0.250671	0.226147
	C161	C	-0.041748	0.248551	0.227736
	C162	C	0.000991	0.292332	0.025130
	C163	C	-0.039444	0.197533	-0.056742
	C164	C	0.082230	0.259730	0.158218
	C165	C	-0.052874	0.210196	0.304177
	C166	C	0.010479	0.332230	0.094158
	C167	C	-0.042395	0.160911	-0.149386
	C168	C	0.120546	0.260770	0.242403
	C169	C	-0.089549	0.207138	0.396504
	C170	C	0.011806	0.370740	0.011133
	H171	H	0.057930	0.120803	-0.093912
	H172	H	0.079645	0.238985	0.591976
	H173	H	-0.128288	0.308369	0.349369
	H174	H	-0.010662	0.330893	-0.339416
	H175	H	0.062944	0.185065	0.068807
	H176	H	0.012266	0.237805	0.443994
	H177	H	-0.063944	0.313559	0.186835
	H178	H	-0.012341	0.263188	-0.193516
	H179	H	-0.067442	0.218307	-0.043563
	H180	H	0.083195	0.266037	0.036345
	H181	H	-0.032086	0.182217	0.290737
	H182	H	0.016899	0.332863	0.215982
	H183	H	-0.072412	0.153280	-0.207478
	H184	H	0.151035	0.267828	0.186555
	H185	H	-0.097181	0.177069	0.454254
	H186	H	0.019190	0.401027	0.067829
	N187	N	-0.010584	0.095848	-0.259897
	N188	N	0.159046	0.255201	0.485357
	N189	N	-0.153750	0.239425	0.511729
	N190	N	0.006412	0.409892	-0.230545
	C191	C	0.492508	0.463459	-0.094303
	C192	C	0.507480	0.536471	0.094647
	C193	C	0.534561	0.474672	-0.048129
	C194	C	0.465445	0.525362	0.047965
	C195	C	0.541931	0.510448	0.044445
	C196	C	0.458075	0.489588	-0.044625
	H197	H	0.425449	0.481490	-0.079594
	H198	H	0.574570	0.518614	0.079063
	H199	H	0.438735	0.545397	0.085929
	H200	H	0.561284	0.454699	-0.086383
	C201	C	0.484646	0.425542	-0.193158
	H202	H	0.450834	0.419036	-0.224278
	C203	C	0.515398	0.574601	0.192414
	H204	H	0.549236	0.581202	0.222944
	C205	C	0.503372	1.040817	0.927078
	C206	C	0.496522	0.959215	1.073079
	C207	C	0.484108	1.005468	0.852569
	C208	C	0.515943	0.994516	1.147356
	C209	C	0.480742	0.965466	0.924013
	C210	C	0.519314	1.034518	1.075904
	H211	H	0.534398	1.061396	1.134839
	H212	H	0.465765	0.938556	0.864913
	H213	H	0.528307	0.989862	1.262225
	H214	H	0.471835	1.010091	0.737565
	C215	C	0.507117	1.083303	0.851068
	H216	H	0.522663	1.109238	0.917094
	C217	C	0.493104	0.916623	1.148536
	H218	H	0.477726	0.890649	1.082200
	C219	C	0.290551	0.254165	0.824252
	C220	C	0.209488	0.245735	0.675555
	C221	C	0.256718	0.230465	0.891181
	C222	C	0.243263	0.269583	0.608911
	C223	C	0.216981	0.226321	0.818413
	C224	C	0.283000	0.273731	0.681689
	H225	H	0.308692	0.292250	0.628682
	H226	H	0.191249	0.207902	0.871621
	H227	H	0.237637	0.284757	0.498900
	H228	H	0.262306	0.215375	1.001359
	C229	C	0.332744	0.258732	0.901728
	H230	H	0.357456	0.277842	0.841815
	C231	C	0.167167	0.241471	0.598743
	H232	H	0.142405	0.222516	0.659023
	C233	C	0.713340	0.242492	0.843707
	C234	C	0.786590	0.257499	0.655948
	C235	C	0.725222	0.284645	0.800882
	C236	C	0.774812	0.215360	0.699283
	C237	C	0.761116	0.292032	0.708894
	C238	C	0.738920	0.207973	0.791286
	H239	H	0.730303	0.175265	0.823657
	H240	H	0.769802	0.324748	0.676876
	H241	H	0.794421	0.188583	0.659192
	H242	H	0.705675	0.311431	0.841264
	C243	C	0.675297	0.234608	0.941935
	H244	H	0.668253	0.200714	0.970363
	C245	C	0.824847	0.265429	0.558812
	H246	H	0.831986	0.299344	0.530976
	C247	C	0.500000	0.250000	0.375000
	C248	C	0.379265	0.246961	0.100531
	C249	C	0.616625	0.256636	0.080173
	C250	C	0.495254	0.129415	0.649854
	C251	C	0.508147	0.366685	0.669185
	C252	C	0.419405	0.254087	0.030221
	C253	C	0.606645	0.218727	0.160743
	C254	C	0.504643	0.169225	0.719142
	C255	C	0.469919	0.356832	0.590328
	C256	C	0.457604	0.255371	0.115382
	C257	C	0.569977	0.216132	0.253590
	C258	C	0.506066	0.207440	0.634100
	C259	C	0.466854	0.320152	0.497710
	C260	C	0.457814	0.249450	0.274358
	C261	C	0.541608	0.251149	0.271464
	C262	C	0.498949	0.207855	0.475748
	C263	C	0.501688	0.291636	0.478353
	C264	C	0.417696	0.240393	0.342441
	C265	C	0.552624	0.289337	0.193750
	C266	C	0.489497	0.167826	0.407674
	C267	C	0.540186	0.302523	0.554380
	C268	C	0.379381	0.239135	0.258263
	C269	C	0.589139	0.292178	0.100560
	C270	C	0.488095	0.129494	0.491719
	C271	C	0.543500	0.339046	0.647337
	H272	H	0.420584	0.258149	-0.092820
	H273	H	0.627710	0.190920	0.148348
	H274	H	0.509914	0.170167	0.841644
	H275	H	0.442233	0.377998	0.603889
	H276	H	0.487766	0.260243	0.055300
	H277	H	0.563834	0.186237	0.313845
	H278	H	0.512174	0.237441	0.693761
	H279	H	0.436721	0.314127	0.438823
	H280	H	0.416720	0.234145	0.464373
	H281	H	0.531885	0.317347	0.207104
	H282	H	0.483212	0.166918	0.285758
	H283	H	0.568077	0.281685	0.539910
	H284	H	0.348939	0.231930	0.314229
	H285	H	0.596743	0.322121	0.041982
	H286	H	0.480795	0.099094	0.435625
	H287	H	0.573674	0.346543	0.704593
	N288	N	0.340653	0.244611	0.016078
	N289	N	0.654195	0.260053	-0.009614
	N290	N	0.495183	0.090492	0.732940
	N291	N	0.512043	0.404261	0.758702
