data_Molecule from CHK

_cell_length_a		30.922388
_cell_length_b		30.922388
_cell_length_c		4.858962
_cell_angle_alpha	90.000000
_cell_angle_beta	90.000000
_cell_angle_gamma	90.000000
_symmetry_space_group_name_H-M	'P 1'
_symmetry_Int_Tables_number		1

loop_
	_symmetry_equiv_pos_as_xyz
	x,y,z

loop_
	_atom_site_label
	_atom_site_type_symbol
	_atom_site_fract_x
	_atom_site_fract_y
	_atom_site_fract_z
	C0	C	0.000000	0.750000	0.375000
	C1	C	-0.003039	0.629265	0.869045
	C2	C	0.006636	0.866625	0.905688
	C3	C	-0.120585	0.745254	-0.119737
	C4	C	0.116685	0.758147	-0.154533
	C5	C	0.004087	0.669405	0.995603
	C6	C	-0.031273	0.856645	0.760663
	C7	C	-0.080775	0.754643	-0.244455
	C8	C	0.106832	0.719919	-0.012591
	C9	C	0.005371	0.707604	0.842313
	C10	C	-0.033868	0.819977	0.593538
	C11	C	-0.042560	0.756066	-0.091380
	C12	C	0.070152	0.716854	0.154123
	C13	C	-0.000550	0.707814	0.556156
	C14	C	0.001149	0.791608	0.561365
	C15	C	-0.042145	0.748949	0.193653
	C16	C	0.041636	0.751688	0.188964
	C17	C	-0.009607	0.667696	0.433606
	C18	C	0.039337	0.802624	0.701250
	C19	C	-0.082174	0.739497	0.316187
	C20	C	0.052523	0.790186	0.052116
	C21	C	-0.010865	0.629381	0.585126
	C22	C	0.042178	0.839139	0.868992
	C23	C	-0.120506	0.738095	0.164906
	C24	C	0.089046	0.793500	-0.115207
	H25	H	0.008149	0.670584	1.217076
	H26	H	-0.059080	0.877710	0.782973
	H27	H	-0.079833	0.759914	-0.464959
	H28	H	0.127998	0.692233	-0.037000
	H29	H	0.010243	0.737766	0.950461
	H30	H	-0.063763	0.813834	0.485079
	H31	H	-0.012559	0.762174	-0.198770
	H32	H	0.064127	0.686721	0.260118
	H33	H	-0.015855	0.666720	0.214128
	H34	H	0.067347	0.781885	0.677213
	H35	H	-0.083082	0.733212	0.535636
	H36	H	0.031685	0.818077	0.078162
	H37	H	-0.018070	0.598939	0.484388
	H38	H	0.072121	0.846743	0.974433
	H39	H	-0.150906	0.730795	0.265875
	H40	H	0.096543	0.823674	-0.218267
	N41	N	-0.005389	0.590653	1.021059
	N42	N	0.010053	0.904195	1.067305
	N43	N	-0.159508	0.745183	-0.269292
	N44	N	0.154261	0.762043	-0.315663
	C45	C	0.287208	0.757508	0.086265
	C46	C	0.212723	0.742501	0.413112
	C47	C	0.271828	0.715355	0.131862
	C48	C	0.228205	0.784640	0.368440
	C49	C	0.235333	0.707968	0.292031
	C50	C	0.264703	0.792027	0.208290
	H51	H	0.276208	0.824735	0.176011
	H52	H	0.223900	0.675252	0.324936
	H53	H	0.210977	0.811417	0.462042
	H54	H	0.289112	0.688569	0.038810
	C55	C	0.326084	0.765392	-0.083054
	H56	H	0.336012	0.799286	-0.108265
	C57	C	0.174068	0.734571	0.584366
	H58	H	0.164265	0.700656	0.610503
	C59	C	0.709175	0.746658	0.118815
	C60	C	0.790855	0.753234	0.380911
	C61	C	0.744757	0.765110	-0.017402
	C62	C	0.755229	0.734942	0.517536
	C63	C	0.784795	0.768353	0.110878
	C64	C	0.715189	0.731703	0.389263
	H65	H	0.688053	0.717516	0.497670
	H66	H	0.811900	0.782650	0.002738
	H67	H	0.759664	0.723340	0.726274
	H68	H	0.740300	0.776806	-0.225903
	C69	C	0.666566	0.743340	-0.016895
	H70	H	0.640411	0.728556	0.103927
	C71	C	0.833376	0.756900	0.517377
	H72	H	0.859470	0.771860	0.396889
	C73	C	-0.003272	0.459155	0.631006
	C74	C	0.003164	0.540874	0.369262
	C75	C	0.014784	0.494847	0.768209
	C76	C	-0.014732	0.505140	0.231660
	C77	C	0.017957	0.534904	0.640103
	C78	C	-0.017901	0.465080	0.359760
	H79	H	-0.031781	0.437860	0.250595
	H80	H	0.031947	0.562094	0.749006
	H81	H	-0.026081	0.509506	0.022302
	H82	H	0.026228	0.490460	0.977335
	C83	C	-0.006515	0.416526	0.766540
	H84	H	-0.020980	0.390284	0.644928
	C85	C	0.006756	0.583417	0.232992
	H86	H	0.021398	0.609599	0.354279
	C87	C	0.007506	0.036644	0.668818
	C88	C	-0.007513	-0.036713	0.331806
	C89	C	-0.034683	0.024436	0.594666
	C90	C	0.034687	-0.024403	0.405032
	C91	C	-0.042075	-0.011503	0.429493
	C92	C	0.042079	0.011539	0.570185
	H93	H	0.074834	0.020581	0.624629
	H94	H	-0.074824	-0.020474	0.374423
	H95	H	0.061504	-0.043647	0.329576
	H96	H	-0.061498	0.043736	0.669570
	C97	C	0.015417	0.074924	0.843485
	H98	H	0.049349	0.082302	0.891659
	C99	C	-0.015421	-0.074772	0.155189
	H100	H	-0.049348	-0.082022	0.106083
	C101	C	0.500000	0.750000	0.125000
	C102	C	0.383219	0.743006	0.654633
	C103	C	0.502665	0.870595	-0.369955
	C104	C	0.492305	0.632364	-0.396278
	C105	C	0.621253	0.753579	0.613423
	C106	C	0.392791	0.780702	0.506072
	C107	C	0.494835	0.830537	-0.495633
	C108	C	0.530762	0.643106	-0.259383
	C109	C	0.581441	0.745310	0.741110
	C110	C	0.429564	0.783411	0.339954
	C111	C	0.493773	0.792336	-0.342302
	C112	C	0.533573	0.679934	-0.093819
	C113	C	0.543045	0.743961	0.589841
	C114	C	0.458504	0.748760	0.312366
	C115	C	0.500671	0.792085	-0.057065
	C116	C	0.498551	0.708252	-0.059925
	C117	C	0.542332	0.750991	0.304766
	C118	C	0.447533	0.710556	0.452136
	C119	C	0.509730	0.832230	0.065208
	C120	C	0.460196	0.697126	-0.197519
	C121	C	0.582230	0.760479	0.180515
	C122	C	0.410911	0.707605	0.618894
	C123	C	0.510770	0.870546	-0.086326
	C124	C	0.457138	0.660451	-0.363707
	C125	C	0.620740	0.761806	0.329961
	H126	H	0.370803	0.807930	0.519041
	H127	H	0.488985	0.829645	-0.715557
	H128	H	0.558369	0.621712	-0.278865
	H129	H	0.580893	0.739338	0.960949
	H130	H	0.435065	0.812944	0.226147
	H131	H	0.487805	0.762266	-0.449190
	H132	H	0.563559	0.686056	0.013698
	H133	H	0.513188	0.737659	0.698329
	H134	H	0.468307	0.682558	0.428414
	H135	H	0.516037	0.833195	0.284580
	H136	H	0.432217	0.717914	-0.173326
	H137	H	0.582863	0.766899	-0.038767
	H138	H	0.403280	0.677588	0.723461
	H139	H	0.517828	0.901035	0.014201
	H140	H	0.427069	0.652819	-0.467658
	H141	H	0.651027	0.769190	0.227908
	N142	N	0.345848	0.739416	0.817814
	N143	N	0.505201	0.909046	-0.523643
	N144	N	0.489425	0.596250	-0.571112
	N145	N	0.659892	0.756412	0.764981
	C146	C	0.000000	0.250000	0.625000
	C147	C	-0.006994	0.133219	0.095367
	C148	C	0.120595	0.252665	1.119955
	C149	C	-0.117636	0.242305	1.146278
	C150	C	0.003579	0.371253	0.136577
	C151	C	0.030702	0.142791	0.243928
	C152	C	0.080537	0.244835	1.245633
	C153	C	-0.106894	0.280762	1.009383
	C154	C	-0.004690	0.331441	0.008890
	C155	C	0.033411	0.179564	0.410046
	C156	C	0.042336	0.243773	1.092302
	C157	C	-0.070066	0.283573	0.843819
	C158	C	-0.006039	0.293045	0.160159
	C159	C	-0.001240	0.208504	0.437634
	C160	C	0.042085	0.250671	0.807065
	C161	C	-0.041748	0.248551	0.809925
	C162	C	0.000991	0.292332	0.445234
	C163	C	-0.039444	0.197533	0.297864
	C164	C	0.082230	0.259730	0.684792
	C165	C	-0.052874	0.210196	0.947519
	C166	C	0.010479	0.332230	0.569485
	C167	C	-0.042395	0.160911	0.131106
	C168	C	0.120546	0.260770	0.836326
	C169	C	-0.089549	0.207138	1.113707
	C170	C	0.011806	0.370740	0.420039
	H171	H	0.057930	0.120803	0.230959
	H172	H	0.079645	0.238985	1.465557
	H173	H	-0.128288	0.308369	1.028865
	H174	H	-0.010662	0.330893	-0.210949
	H175	H	0.062944	0.185065	0.523853
	H176	H	0.012266	0.237805	1.199190
	H177	H	-0.063944	0.313559	0.736302
	H178	H	-0.012341	0.263188	0.051671
	H179	H	-0.067442	0.218307	0.321586
	H180	H	0.083195	0.266037	0.465420
	H181	H	-0.032086	0.182217	0.923326
	H182	H	0.016899	0.332863	0.788767
	H183	H	-0.072412	0.153280	0.026539
	H184	H	0.151035	0.267828	0.735799
	H185	H	-0.097181	0.177069	1.217658
	H186	H	0.019190	0.401027	0.522092
	N187	N	-0.010584	0.095848	-0.067814
	N188	N	0.159046	0.255201	1.273643
	N189	N	-0.153750	0.239425	1.321112
	N190	N	0.006412	0.409892	-0.014981
	C191	C	0.492522	0.463539	0.829537
	C192	C	0.507464	0.536392	1.171081
	C193	C	0.534491	0.474304	0.916676
	C194	C	0.465516	0.525730	1.083029
	C195	C	0.541846	0.510002	1.084016
	C196	C	0.458161	0.490033	0.915661
	H197	H	0.425604	0.482283	0.849593
	H198	H	0.574419	0.517821	1.149452
	H199	H	0.438863	0.546049	1.148807
	H200	H	0.561159	0.454047	0.850377
	C201	C	0.484679	0.425705	0.650846
	H202	H	0.450936	0.419559	0.591593
	C203	C	0.515370	0.574438	1.347819
	H204	H	0.549143	0.580678	1.406013
	C205	C	0.503562	1.040760	-0.131774
	C206	C	0.496333	0.959274	0.132073
	C207	C	0.483234	1.005737	-0.262955
	C208	C	0.516817	0.994246	0.262813
	C209	C	0.479681	0.965792	-0.133843
	C210	C	0.520374	1.034191	0.133686
	H211	H	0.536283	1.060814	0.237472
	H212	H	0.463877	0.939136	-0.237942
	H213	H	0.529856	0.989383	0.467694
	H214	H	0.470284	1.010567	-0.468093
	C215	C	0.507505	1.083183	-0.269161
	H216	H	0.523906	1.108855	-0.152682
	C217	C	0.492712	0.916740	0.268416
	H218	H	0.476476	0.891026	0.151353
	C219	C	0.290624	0.253968	0.882993
	C220	C	0.209413	0.245931	0.616675
	C221	C	0.256374	0.231372	1.007224
	C222	C	0.243608	0.268677	0.492933
	C223	C	0.216563	0.227421	0.876897
	C224	C	0.283418	0.272631	0.623277
	H225	H	0.309437	0.290296	0.524927
	H226	H	0.190508	0.209859	0.975594
	H227	H	0.238249	0.283152	0.292507
	H228	H	0.261696	0.216983	1.207936
	C229	C	0.332898	0.258330	1.021725
	H230	H	0.357947	0.276553	0.910852
	C231	C	0.167017	0.241878	0.479089
	H232	H	0.141921	0.223814	0.590598
	C233	C	0.713340	0.242492	0.918672
	C234	C	0.786590	0.257499	0.580707
	C235	C	0.725222	0.284645	0.841587
	C236	C	0.774812	0.215360	0.658710
	C237	C	0.761116	0.292032	0.676009
	C238	C	0.738920	0.207973	0.824315
	H239	H	0.730303	0.175265	0.882583
	H240	H	0.769802	0.324748	0.618376
	H241	H	0.794421	0.188583	0.586545
	H242	H	0.705675	0.311431	0.914274
	C243	C	0.675297	0.234608	1.095483
	H244	H	0.668253	0.200714	1.146653
	C245	C	0.824847	0.265429	0.405862
	H246	H	0.831986	0.299344	0.355758
	C247	C	0.500000	0.250000	0.875000
	C248	C	0.379265	0.246961	0.380955
	C249	C	0.616625	0.256636	0.344312
	C250	C	0.495254	0.129415	1.369737
	C251	C	0.508147	0.366685	1.404533
	C252	C	0.419405	0.254087	0.254397
	C253	C	0.606645	0.218727	0.489337
	C254	C	0.504643	0.169225	1.494455
	C255	C	0.469919	0.356832	1.262591
	C256	C	0.457604	0.255371	0.407687
	C257	C	0.569977	0.216132	0.656462
	C258	C	0.506066	0.207440	1.341380
	C259	C	0.466854	0.320152	1.095877
	C260	C	0.457814	0.249450	0.693844
	C261	C	0.541608	0.251149	0.688635
	C262	C	0.498949	0.207855	1.056347
	C263	C	0.501688	0.291636	1.061036
	C264	C	0.417696	0.240393	0.816394
	C265	C	0.552624	0.289337	0.548750
	C266	C	0.489497	0.167826	0.933813
	C267	C	0.540186	0.302523	1.197884
	C268	C	0.379381	0.239135	0.664874
	C269	C	0.589139	0.292178	0.381008
	C270	C	0.488095	0.129494	1.085094
	C271	C	0.543500	0.339046	1.365207
	H272	H	0.420584	0.258149	0.032924
	H273	H	0.627710	0.190920	0.467027
	H274	H	0.509914	0.170167	1.714959
	H275	H	0.442233	0.377998	1.287000
	H276	H	0.487766	0.260243	0.299539
	H277	H	0.563834	0.186237	0.764921
	H278	H	0.512174	0.237441	1.448770
	H279	H	0.436721	0.314127	0.989882
	H280	H	0.416720	0.234145	1.035872
	H281	H	0.531885	0.317347	0.572787
	H282	H	0.483212	0.166918	0.714364
	H283	H	0.568077	0.281685	1.171838
	H284	H	0.348939	0.231930	0.765612
	H285	H	0.596743	0.322121	0.275567
	H286	H	0.480795	0.099094	0.984125
	H287	H	0.573674	0.346543	1.468267
	N288	N	0.340653	0.244611	0.228941
	N289	N	0.654195	0.260053	0.182695
	N290	N	0.495183	0.090492	1.519292
	N291	N	0.512043	0.404261	1.565663
