data_Molecule from CHK

_cell_length_a		32.579105
_cell_length_b		32.581514
_cell_length_c		5.203954
_cell_angle_alpha	90.655983
_cell_angle_beta	89.340208
_cell_angle_gamma	98.696262
_symmetry_space_group_name_H-M	'P 1'
_symmetry_Int_Tables_number		1

loop_
	_symmetry_equiv_pos_as_xyz
	x,y,z

loop_
	_atom_site_label
	_atom_site_type_symbol
	_atom_site_fract_x
	_atom_site_fract_y
	_atom_site_fract_z
	C0	C	0.001079	0.747544	0.870965
	C1	C	-0.008135	0.632773	1.364815
	C2	C	0.009301	0.863352	1.366678
	C3	C	-0.115328	0.738562	0.395507
	C4	C	0.114332	0.757501	0.350911
	C5	C	0.029642	0.652247	1.262291
	C6	C	-0.028408	0.843230	1.269601
	C7	C	-0.093879	0.776459	0.483747
	C8	C	0.095843	0.719661	0.454714
	C9	C	0.032198	0.688225	1.112211
	C10	C	-0.030562	0.806551	1.122037
	C11	C	-0.057197	0.778679	0.625955
	C12	C	0.060069	0.716834	0.611547
	C13	C	-0.002051	0.706947	1.045206
	C14	C	0.004178	0.788837	1.044409
	C15	C	-0.040030	0.743941	0.701490
	C16	C	0.041636	0.751032	0.690820
	C17	C	-0.039822	0.684560	1.128744
	C18	C	0.041774	0.813179	1.111324
	C19	C	-0.064709	0.706278	0.637202
	C20	C	0.064318	0.788959	0.614131
	C21	C	-0.042966	0.648227	1.275133
	C22	C	0.044428	0.849755	1.259716
	C23	C	-0.101366	0.703523	0.494281
	C24	C	0.100264	0.792264	0.459595
	H25	H	0.057624	0.639536	1.302503
	H26	H	-0.056561	0.855590	1.316163
	H27	H	-0.105694	0.804736	0.438853
	H28	H	0.108644	0.691824	0.406337
	H29	H	0.062347	0.703707	1.052899
	H30	H	-0.060585	0.789920	1.071138
	H31	H	-0.040028	0.808694	0.673773
	H32	H	0.044578	0.686579	0.666912
	H33	H	-0.068020	0.696527	1.083115
	H34	H	0.070313	0.802521	1.052528
	H35	H	-0.054202	0.677753	0.692452
	H36	H	0.052784	0.817217	0.669363
	H37	H	-0.073113	0.631767	1.330514
	H38	H	0.074364	0.867517	1.304997
	H39	H	-0.119168	0.673541	0.448715
	H40	H	0.117042	0.822450	0.409935
	N41	N	-0.013013	0.602900	1.562918
	N42	N	0.013889	0.894868	1.557956
	N43	N	-0.145763	0.733875	0.200896
	N44	N	0.144703	0.762848	0.152659
	C45	C	0.315971	0.763279	-0.368132
	C46	C	0.299516	0.724283	-0.271150
	C47	C	0.273705	0.719972	-0.053277
	C48	C	0.262145	0.754193	0.083345
	C49	C	0.279056	0.793255	-0.016474
	C50	C	0.304994	0.797674	-0.233519
	C51	C	0.233811	0.749412	0.318030
	C52	C	0.222783	0.783525	0.458386
	C53	C	0.197005	0.779000	0.676613
	C54	C	0.179969	0.739892	0.769310
	C55	C	0.190261	0.705640	0.630069
	C56	C	0.216264	0.710255	0.413598
	H57	H	0.189061	0.806092	0.777095
	H58	H	0.316851	0.828456	-0.302891
	H59	H	0.177797	0.674774	0.695364
	H60	H	0.307996	0.697066	-0.367562
	H61	H	0.234105	0.814784	0.397150
	H62	H	0.271629	0.821195	0.074879
	H63	H	0.263015	0.688782	0.011514
	H64	H	0.222974	0.682352	0.318480
	C65	C	0.345312	0.768409	-0.591259
	H66	H	0.362337	0.799937	-0.615492
	C67	C	0.151289	0.734034	0.995319
	H68	H	0.135002	0.702160	1.015241
	C69	C	0.681664	0.740934	-0.280183
	C70	C	0.703908	0.779029	-0.201703
	C71	C	0.730081	0.782330	0.011195
	C72	C	0.736637	0.747767	0.157973
	C73	C	0.714186	0.709582	0.075448
	C74	C	0.687531	0.706297	-0.134470
	C75	C	0.765546	0.751200	0.385773
	C76	C	0.773563	0.716426	0.525635
	C77	C	0.799852	0.719727	0.738029
	C78	C	0.820406	0.758148	0.824217
	C79	C	0.813075	0.793012	0.685573
	C80	C	0.786541	0.789650	0.475090
	H81	H	0.805338	0.692189	0.839043
	H82	H	0.670762	0.676198	-0.187882
	H83	H	0.828327	0.823359	0.746486
	H84	H	0.700141	0.806317	-0.310931
	H85	H	0.759450	0.685595	0.468424
	H86	H	0.717168	0.681497	0.177273
	H87	H	0.745765	0.812944	0.060713
	H88	H	0.782034	0.817949	0.380595
	C89	C	0.652487	0.736357	-0.500005
	H90	H	0.636621	0.704441	-0.525804
	C91	C	0.849528	0.762742	1.044122
	H92	H	0.867876	0.793808	1.059960
	C93	C	-0.009400	0.430438	1.052062
	C94	C	0.029366	0.449098	0.959413
	C95	C	0.033222	0.475144	0.745429
	C96	C	-0.001268	0.484867	0.609398
	C97	C	-0.040070	0.465740	0.705005
	C98	C	-0.044005	0.439455	0.917158
	C99	C	0.002827	0.513453	0.379133
	C100	C	-0.031681	0.523483	0.244640
	C101	C	-0.027837	0.549503	0.030543
	C102	C	0.010940	0.567835	-0.063779
	C103	C	0.045568	0.558526	0.069654
	C104	C	0.041639	0.532309	0.282152
	H105	H	-0.055254	0.556569	-0.065358
	H106	H	-0.074651	0.425708	0.982307
	H107	H	0.076226	0.571958	0.002937
	H108	H	0.056759	0.442247	1.056516
	H109	H	-0.062766	0.511181	0.307517
	H110	H	-0.068219	0.471414	0.613194
	H111	H	0.064301	0.487753	0.684040
	H112	H	0.069804	0.526331	0.372473
	C113	C	-0.014579	0.401366	1.273089
	H114	H	-0.046170	0.384297	1.293224
	C115	C	0.016113	0.596611	-0.286373
	H116	H	0.047841	0.613192	-0.310285
	C117	C	0.010441	0.068815	1.061107
	C118	C	-0.028342	0.049712	0.974163
	C119	C	-0.032208	0.023319	0.758931
	C120	C	0.002301	0.013751	0.616258
	C121	C	0.041126	0.033255	0.706551
	C122	C	0.045074	0.059871	0.920114
	C123	C	-0.001817	-0.015155	0.384583
	C124	C	0.032685	-0.024489	0.240891
	C125	C	0.028834	-0.050932	0.025910
	C126	C	-0.009918	-0.070359	-0.059572
	C127	C	-0.044538	-0.061700	0.082658
	C128	C	-0.040612	-0.034997	0.295817
	H129	H	0.056205	-0.057506	-0.077529
	H130	H	0.075696	0.073915	0.981565
	H131	H	-0.075129	-0.076059	0.022568
	H132	H	-0.055723	0.056468	1.076742
	H133	H	0.063738	-0.011221	0.296433
	H134	H	0.069265	0.027574	0.609822
	H135	H	-0.063280	0.010349	0.702030
	H136	H	-0.068734	-0.029602	0.393878
	C137	C	0.015488	0.098142	1.283692
	H138	H	0.046833	0.115854	1.299853
	C139	C	-0.014882	-0.099978	-0.280623
	H140	H	-0.045905	-0.118510	-0.292172
	C141	C	0.504776	0.754201	0.624939
	C142	C	0.383627	0.743183	1.068215
	C143	C	0.511027	0.865196	0.095911
	C144	C	0.493816	0.633156	0.180597
	C145	C	0.615661	0.760630	1.155178
	C146	C	0.398400	0.778859	0.927787
	C147	C	0.476782	0.834156	0.121683
	C148	C	0.529529	0.647965	0.320582
	C149	C	0.584862	0.726214	1.127547
	C150	C	0.435107	0.781597	0.778690
	C151	C	0.476807	0.798741	0.273707
	C152	C	0.532269	0.684650	0.469866
	C153	C	0.549475	0.726169	0.975140
	C154	C	0.460903	0.750726	0.773837
	C155	C	0.508201	0.794196	0.444380
	C156	C	0.501266	0.710286	0.476597
	C157	C	0.544779	0.757682	0.805650
	C158	C	0.440967	0.713059	0.872887
	C159	C	0.536564	0.831315	0.464250
	C160	C	0.463643	0.690418	0.376589
	C161	C	0.581748	0.786291	0.787335
	C162	C	0.402881	0.708934	1.005899
	C163	C	0.541012	0.863184	0.282134
	C164	C	0.459550	0.652369	0.243235
	C165	C	0.613529	0.790760	0.970046
	H166	H	0.381763	0.805126	0.940019
	H167	H	0.448585	0.839031	0.030561
	H168	H	0.555831	0.631382	0.307699
	H169	H	0.589889	0.697975	1.217620
	H170	H	0.445120	0.809829	0.673889
	H171	H	0.450575	0.774282	0.273625
	H172	H	0.560543	0.694729	0.574106
	H173	H	0.525147	0.699818	0.974145
	H174	H	0.455724	0.685809	0.843452
	H175	H	0.553477	0.839082	0.639285
	H176	H	0.436371	0.705141	0.406168
	H177	H	0.589509	0.803425	0.613089
	H178	H	0.388028	0.679112	1.075547
	H179	H	0.566652	0.888429	0.295294
	H180	H	0.429733	0.637517	0.173482
	H181	H	0.638633	0.816559	0.958215
	N182	N	0.351924	0.738797	1.257512
	N183	N	0.515990	0.895474	-0.099587
	N184	N	0.489421	0.601440	-0.008572
	N185	N	0.645807	0.765645	1.351444
	C186	C	0.000845	0.251432	0.125175
	C187	C	-0.008735	0.134467	-0.361322
	C188	C	0.114352	0.259951	0.629011
	C189	C	-0.116092	0.241786	0.612037
	C190	C	0.009354	0.364877	-0.379218
	C191	C	0.029150	0.154458	-0.265884
	C192	C	0.094378	0.222208	0.529042
	C193	C	-0.096166	0.279675	0.516280
	C194	C	-0.028392	0.344912	-0.279175
	C195	C	0.031763	0.191189	-0.118556
	C196	C	0.058374	0.219978	0.379532
	C197	C	-0.059447	0.282317	0.368767
	C198	C	-0.030618	0.308933	-0.129417
	C199	C	-0.002503	0.210218	-0.048732
	C200	C	0.041415	0.254688	0.300239
	C201	C	-0.040359	0.248078	0.299190
	C202	C	0.004094	0.291990	-0.049983
	C203	C	-0.040402	0.187195	-0.122897
	C204	C	0.065600	0.292253	0.371434
	C205	C	-0.063308	0.210170	0.373809
	C206	C	0.041660	0.316173	-0.121246
	C207	C	-0.043602	0.150220	-0.267625
	C208	C	0.101452	0.294945	0.522132
	C209	C	-0.100282	0.206940	0.518592
	C210	C	0.044347	0.352005	-0.272121
	H211	H	0.057069	0.141439	-0.308831
	H212	H	0.106257	0.193984	0.574536
	H213	H	-0.109226	0.307572	0.559148
	H214	H	-0.056622	0.356772	-0.324805
	H215	H	0.061891	0.206866	-0.062290
	H216	H	0.041638	0.189881	0.328909
	H217	H	-0.043823	0.312451	0.312241
	H218	H	-0.060716	0.292198	-0.078771
	H219	H	-0.068606	0.199165	-0.071347
	H220	H	0.055263	0.320837	0.316124
	H221	H	-0.051282	0.181988	0.322517
	H222	H	0.070251	0.305845	-0.065952
	H223	H	-0.073737	0.133443	-0.318443
	H224	H	0.119081	0.324926	0.569662
	H225	H	-0.117014	0.176797	0.569638
	H226	H	0.074331	0.369633	-0.319656
	N227	N	-0.013526	0.103789	-0.557986
	N228	N	0.145089	0.264816	0.821802
	N229	N	-0.146768	0.236973	0.808713
	N230	N	0.014237	0.395553	-0.572391
	C231	C	0.490016	0.429807	-0.521982
	C232	C	0.529163	0.446577	-0.428612
	C233	C	0.533767	0.472293	-0.210137
	C234	C	0.499702	0.483469	-0.069931
	C235	C	0.460506	0.465978	-0.165213
	C236	C	0.455812	0.440041	-0.381951
	C237	C	0.504565	0.511746	0.164986
	C238	C	0.470391	0.523385	0.301758
	C239	C	0.474777	0.549142	0.519841
	C240	C	0.513805	0.565403	0.617188
	C241	C	0.548158	0.554561	0.481446
	C242	C	0.543665	0.528672	0.264216
	H243	H	0.447595	0.557676	0.616418
	H244	H	0.424916	0.427651	-0.447076
	H245	H	0.578966	0.566426	0.550371
	H246	H	0.556222	0.438560	-0.529150
	H247	H	0.439179	0.512803	0.236955
	H248	H	0.432634	0.472700	-0.069729
	H249	H	0.565046	0.483447	-0.148592
	H250	H	0.571578	0.521316	0.172128
	C251	C	0.484060	0.401288	-0.748770
	H252	H	0.452010	0.385615	-0.771303
	C253	C	0.519003	0.594801	0.840012
	H254	H	0.550466	0.612069	0.862557
	C255	C	0.508123	1.069921	0.427270
	C256	C	0.469722	1.049395	0.514029
	C257	C	0.466485	1.023112	0.726432
	C258	C	0.501301	1.015153	0.866095
	C259	C	0.539708	1.036299	0.777097
	C260	C	0.543003	1.062827	0.566604
	C261	C	0.497929	0.986290	1.094092
	C262	C	0.532524	0.979796	1.240777
	C263	C	0.529270	0.953661	1.453842
	C264	C	0.491184	0.931454	1.532858
	C265	C	0.456558	0.937064	1.386274
	C266	C	0.459792	0.963685	1.176212
	H267	H	0.556576	0.949956	1.563084
	H268	H	0.573311	1.078217	0.505937
	H269	H	0.426495	0.920179	1.439426
	H270	H	0.442152	1.054885	0.413367
	H271	H	0.563122	0.995502	1.191043
	H272	H	0.568022	1.031947	0.871988
	H273	H	0.435670	1.008991	0.783962
	H274	H	0.431709	0.966508	1.073925
	C275	C	0.512557	1.099473	0.209670
	H276	H	0.543327	1.118517	0.197388
	C277	C	0.486677	0.902167	1.752091
	H278	H	0.454852	0.885972	1.776289
	C279	C	0.317214	0.261162	1.313679
	C280	C	0.298878	0.222415	1.218992
	C281	C	0.272864	0.218635	1.004898
	C282	C	0.262947	0.253179	0.870292
	C283	C	0.281953	0.291953	0.966941
	C284	C	0.308171	0.295816	1.179416
	C285	C	0.234377	0.249145	0.639983
	C286	C	0.224672	0.283669	0.504231
	C287	C	0.198650	0.279867	0.290148
	C288	C	0.180066	0.241122	0.196801
	C289	C	0.188865	0.206498	0.332382
	C290	C	0.215127	0.210377	0.544628
	H291	H	0.191810	0.307283	0.193277
	H292	H	0.321765	0.326441	1.245757
	H293	H	0.175025	0.175875	0.267394
	H294	H	0.305917	0.194974	1.314717
	H295	H	0.237269	0.314729	0.565979
	H296	H	0.276150	0.320137	0.876122
	H297	H	0.260514	0.187571	0.941932
	H298	H	0.220687	0.182209	0.636670
	C299	C	0.346434	0.266213	1.533962
	H300	H	0.363791	0.297691	1.553938
	C301	C	0.150847	0.236009	-0.023464
	H302	H	0.133651	0.204465	-0.043030
	C303	C	0.679358	0.240186	1.311969
	C304	C	0.698457	0.278988	1.225323
	C305	C	0.724813	0.282911	1.009906
	C306	C	0.734307	0.248443	0.866544
	C307	C	0.714608	0.209613	0.955608
	C308	C	0.687996	0.205614	1.169212
	C309	C	0.763175	0.252629	0.634649
	C310	C	0.772907	0.218147	0.492418
	C311	C	0.799267	0.222066	0.277024
	C312	C	0.818105	0.260884	0.189119
	C313	C	0.809194	0.295480	0.330590
	C314	C	0.782609	0.291478	0.544325
	H315	H	0.806164	0.194706	0.174828
	H316	H	0.673765	0.174992	1.229529
	H317	H	0.823188	0.326116	0.269115
	H318	H	0.691784	0.306332	1.328628
	H319	H	0.760116	0.187055	0.549879
	H320	H	0.720045	0.181518	0.857410
	H321	H	0.737869	0.313989	0.953674
	H322	H	0.776910	0.319592	0.641254
	C323	C	0.649926	0.235114	1.534054
	H324	H	0.632013	0.203844	1.548500
	C325	C	0.847613	0.265943	-0.032597
	H326	H	0.865155	0.297351	-0.049433
	C327	C	0.497119	0.250712	0.379136
	C328	C	0.488380	0.135344	0.862794
	C329	C	0.507533	0.364979	0.891703
	C330	C	0.383288	0.242029	-0.121428
	C331	C	0.613916	0.259292	-0.109013
	C332	C	0.526192	0.155672	0.765811
	C333	C	0.469510	0.345496	0.795455
	C334	C	0.401858	0.279605	-0.011730
	C335	C	0.592703	0.221458	-0.020565
	C336	C	0.528440	0.192212	0.622076
	C337	C	0.466622	0.309589	0.639923
	C338	C	0.437758	0.282083	0.139119
	C339	C	0.555895	0.219300	0.125645
	C340	C	0.493680	0.209459	0.547327
	C341	C	0.500755	0.291089	0.560612
	C342	C	0.456444	0.247762	0.205495
	C343	C	0.538273	0.254007	0.204422
	C344	C	0.456028	0.184953	0.613888
	C345	C	0.538746	0.313713	0.636599
	C346	C	0.433816	0.210047	0.122897
	C347	C	0.562700	0.291639	0.139144
	C348	C	0.453312	0.148547	0.759141
	C349	C	0.542186	0.349924	0.788783
	C350	C	0.397716	0.207057	-0.025523
	C351	C	0.599516	0.294363	-0.007073
	H352	H	0.554382	0.143599	0.809490
	H353	H	0.441637	0.358219	0.844085
	H354	H	0.389008	0.307540	-0.051044
	H355	H	0.604870	0.193234	-0.067965
	H356	H	0.558507	0.209069	0.571899
	H357	H	0.436369	0.294028	0.585273
	H358	H	0.453122	0.312218	0.199733
	H359	H	0.539062	0.189311	0.175085
	H360	H	0.427470	0.195393	0.558755
	H361	H	0.566919	0.301933	0.582157
	H362	H	0.445473	0.181740	0.169677
	H363	H	0.551913	0.320130	0.197745
	H364	H	0.423357	0.130706	0.804918
	H365	H	0.572431	0.366523	0.838868
	H366	H	0.380999	0.176968	-0.079717
	H367	H	0.617198	0.324338	-0.052346
	N368	N	0.483826	0.103958	1.051226
	N369	N	0.512948	0.394446	1.095272
	N370	N	0.352423	0.237219	-0.313331
	N371	N	0.644535	0.263993	-0.306050
