data_Molecule from CHK

_cell_length_a		37.667740
_cell_length_b		37.631636
_cell_length_c		18.181968
_cell_angle_alpha	89.768488
_cell_angle_beta	90.190450
_cell_angle_gamma	94.563512
_symmetry_space_group_name_H-M	'P 1'
_symmetry_Int_Tables_number		1

loop_
	_symmetry_equiv_pos_as_xyz
	x,y,z

loop_
	_atom_site_label
	_atom_site_type_symbol
	_atom_site_fract_x
	_atom_site_fract_y
	_atom_site_fract_z
	C0	C	-0.001480	0.748225	0.125603
	C1	C	-0.013154	0.653840	0.273214
	C2	C	0.001409	0.849394	0.250928
	C3	C	-0.094932	0.736850	-0.024143
	C4	C	0.100193	0.752826	0.001993
	C5	C	-0.006267	0.688182	0.302119
	C6	C	-0.028458	0.837929	0.208668
	C7	C	-0.060529	0.744482	-0.052135
	C8	C	0.088810	0.722562	0.043282
	C9	C	-0.002428	0.718108	0.256260
	C10	C	-0.029757	0.806086	0.169193
	C11	C	-0.030897	0.748191	-0.005593
	C12	C	0.056829	0.720747	0.082277
	C13	C	-0.005384	0.715342	0.179551
	C14	C	-0.001270	0.784260	0.169283
	C15	C	-0.034006	0.744211	0.070894
	C16	C	0.034779	0.749066	0.082612
	C17	C	-0.013762	0.680959	0.151512
	C18	C	0.029047	0.796673	0.209637
	C19	C	-0.068459	0.735347	0.098018
	C20	C	0.047123	0.779775	0.043281
	C21	C	-0.017614	0.650929	0.196917
	C22	C	0.030532	0.828415	0.249364
	C23	C	-0.098200	0.731615	0.051918
	C24	C	0.079000	0.781777	0.004027
	H25	H	-0.004145	0.691238	0.361267
	H26	H	-0.050864	0.854315	0.207388
	H27	H	-0.057188	0.747312	-0.111119
	H28	H	0.105371	0.700280	0.044225
	H29	H	0.002402	0.744047	0.281301
	H30	H	-0.053389	0.798561	0.137229
	H31	H	-0.004897	0.753642	-0.029975
	H32	H	0.049373	0.696837	0.113526
	H33	H	-0.017275	0.677841	0.092618
	H34	H	0.051967	0.780975	0.209457
	H35	H	-0.071857	0.731273	0.156719
	H36	H	0.031253	0.802578	0.043817
	H37	H	-0.024193	0.624762	0.173561
	H38	H	0.054546	0.837369	0.279154
	H39	H	-0.124419	0.724558	0.074543
	H40	H	0.087890	0.806024	-0.025157
	N41	N	-0.017608	0.623633	0.319058
	N42	N	0.002665	0.881822	0.289355
	N43	N	-0.124816	0.732431	-0.070728
	N44	N	0.132704	0.754674	-0.036148
	C45	C	0.327789	0.759526	0.639907
	C46	C	0.297865	0.736981	0.620065
	C47	C	0.266547	0.735965	0.660671
	C48	C	0.263608	0.757386	0.723235
	C49	C	0.293682	0.779986	0.742779
	C50	C	0.324984	0.781102	0.702071
	C51	C	0.230060	0.756207	0.766905
	C52	C	0.230687	0.759587	0.843922
	C53	C	0.199411	0.758295	0.884710
	C54	C	0.165936	0.753716	0.850480
	C55	C	0.165114	0.750334	0.773636
	C56	C	0.196414	0.751524	0.732913
	H57	H	0.200526	0.760741	0.944107
	H58	H	0.347686	0.798875	0.718303
	H59	H	0.139569	0.746792	0.745919
	H60	H	0.299612	0.720093	0.572221
	H61	H	0.256096	0.762444	0.872276
	H62	H	0.292129	0.797420	0.789762
	H63	H	0.244204	0.717682	0.644683
	H64	H	0.194906	0.749514	0.673525
	C65	C	0.360983	0.760708	0.596765
	H66	H	0.383027	0.779333	0.615851
	C67	C	0.132741	0.752057	0.893673
	H68	H	0.107688	0.748436	0.862423
	C69	C	0.677134	0.743013	0.614488
	C70	C	0.682649	0.770880	0.665297
	C71	C	0.712517	0.773661	0.710784
	C72	C	0.738311	0.748661	0.707870
	C73	C	0.732698	0.720840	0.656657
	C74	C	0.702894	0.718105	0.610955
	C75	C	0.770215	0.751518	0.756979
	C76	C	0.784240	0.721045	0.786831
	C77	C	0.813848	0.723690	0.833041
	C78	C	0.831011	0.756936	0.851416
	C79	C	0.817165	0.787456	0.821776
	C80	C	0.787473	0.784787	0.775765
	H81	H	0.824089	0.699849	0.855830
	H82	H	0.699335	0.696448	0.571844
	H83	H	0.829980	0.813448	0.835115
	H84	H	0.662978	0.790342	0.668768
	H85	H	0.771207	0.694984	0.774913
	H86	H	0.752441	0.701551	0.651795
	H87	H	0.715565	0.795097	0.750479
	H88	H	0.777789	0.808796	0.752632
	C89	C	0.645440	0.740012	0.566288
	H90	H	0.643330	0.717501	0.527761
	C91	C	0.862270	0.759798	0.900796
	H92	H	0.874162	0.786861	0.912111
	C93	C	-0.005900	0.424187	0.630937
	C94	C	0.022111	0.430274	0.580647
	C95	C	0.024566	0.460238	0.535292
	C96	C	-0.000901	0.485583	0.537845
	C97	C	-0.028922	0.479345	0.588396
	C98	C	-0.031340	0.449437	0.633954
	C99	C	0.001770	0.517712	0.489204
	C100	C	-0.028715	0.531569	0.459131
	C101	C	-0.026188	0.561484	0.413621
	C102	C	0.006943	0.579148	0.396237
	C103	C	0.037470	0.565480	0.426126
	C104	C	0.034921	0.535494	0.471439
	H105	H	-0.050031	0.571586	0.390630
	H106	H	-0.053133	0.445424	0.672637
	H107	H	0.063377	0.578680	0.413564
	H108	H	0.041976	0.410996	0.577531
	H109	H	-0.054681	0.518170	0.470297
	H110	H	-0.048612	0.498705	0.592946
	H111	H	0.046155	0.463731	0.496034
	H112	H	0.058930	0.525982	0.494826
	C113	C	-0.008382	0.392534	0.679416
	H114	H	-0.031019	0.389983	0.717590
	C115	C	0.009725	0.610748	0.347651
	H116	H	0.036728	0.622944	0.337032
	C117	C	0.008279	1.076497	0.614803
	C118	C	-0.011122	1.045159	0.638296
	C119	C	-0.011700	1.013960	0.597345
	C120	C	0.007036	1.012544	0.530770
	C121	C	0.026478	1.044038	0.507530
	C122	C	0.027163	1.075236	0.548575
	C123	C	0.006311	0.979080	0.486846
	C124	C	0.006091	0.979765	0.409497
	C125	C	0.005202	0.948527	0.368583
	C126	C	0.004688	0.915052	0.402979
	C127	C	0.004995	0.914183	0.480154
	C128	C	0.005768	0.945431	0.521020
	H129	H	0.004795	0.949665	0.308971
	H130	H	0.042492	1.099060	0.529442
	H131	H	0.004667	0.888646	0.508012
	H132	H	-0.025918	1.045692	0.689301
	H133	H	0.005764	1.005124	0.381158
	H134	H	0.041833	1.043724	0.457267
	H135	H	-0.027580	0.990458	0.616348
	H136	H	0.006668	0.943936	0.580528
	C137	C	0.009007	1.109537	0.658444
	H138	H	0.024922	1.132869	0.636236
	C139	C	0.003412	0.881864	0.359741
	H140	H	0.003087	0.856832	0.391204
	C141	C	0.497337	0.747669	0.374323
	C142	C	0.396492	0.743501	0.500779
	C143	C	0.507892	0.842064	0.226467
	C144	C	0.492595	0.646971	0.247095
	C145	C	0.591680	0.758139	0.521890
	C146	C	0.407833	0.773857	0.459580
	C147	C	0.500489	0.807736	0.197975
	C148	C	0.523067	0.658195	0.287910
	C149	C	0.557369	0.751002	0.550539
	C150	C	0.439572	0.775543	0.419737
	C151	C	0.497052	0.777826	0.243895
	C152	C	0.524905	0.689844	0.328122
	C153	C	0.527488	0.747539	0.504677
	C154	C	0.461471	0.747107	0.418639
	C155	C	0.501140	0.780561	0.320390
	C156	C	0.496461	0.711698	0.330244
	C157	C	0.530240	0.751341	0.428110
	C158	C	0.449073	0.716305	0.457589
	C159	C	0.509939	0.814937	0.348095
	C160	C	0.465609	0.699494	0.291390
	C161	C	0.564619	0.759824	0.400235
	C162	C	0.417418	0.714408	0.497565
	C163	C	0.513370	0.844970	0.302604
	C164	C	0.463563	0.667929	0.251040
	C165	C	0.594629	0.763245	0.445659
	H166	H	0.391328	0.796175	0.458564
	H167	H	0.497227	0.804784	0.138987
	H168	H	0.545379	0.641691	0.288279
	H169	H	0.554401	0.748014	0.609589
	H170	H	0.446905	0.799364	0.388111
	H171	H	0.491439	0.751955	0.218973
	H172	H	0.548826	0.697089	0.359375
	H173	H	0.501622	0.742171	0.529708
	H174	H	0.464755	0.693373	0.456387
	H175	H	0.514222	0.818005	0.406801
	H176	H	0.442732	0.715226	0.293060
	H177	H	0.567704	0.763891	0.341459
	H178	H	0.408530	0.690200	0.526900
	H179	H	0.520654	0.870995	0.325966
	H180	H	0.439296	0.659165	0.221899
	H181	H	0.620690	0.770229	0.422243
	N182	N	0.364285	0.741231	0.540020
	N183	N	0.511822	0.871815	0.179331
	N184	N	0.490201	0.614860	0.207439
	N185	N	0.621449	0.762223	0.568814
	C186	C	-0.002693	0.246636	0.876572
	C187	C	-0.006684	0.143425	0.758359
	C188	C	0.090336	0.260955	1.027156
	C189	C	-0.105679	0.241858	0.995585
	C190	C	0.011174	0.339554	0.725299
	C191	C	0.023921	0.155952	0.797385
	C192	C	0.056044	0.252256	1.054717
	C193	C	-0.093491	0.272531	0.956247
	C194	C	0.002838	0.305140	0.697951
	C195	C	0.025511	0.188378	0.834854
	C196	C	0.026530	0.247749	1.007988
	C197	C	-0.061150	0.274365	0.918495
	C198	C	-0.001591	0.275667	0.744927
	C199	C	-0.002928	0.210272	0.834023
	C200	C	0.029772	0.250991	0.931406
	C201	C	-0.039003	0.246121	0.919320
	C202	C	0.001379	0.279074	0.821518
	C203	C	-0.033398	0.197486	0.794576
	C204	C	0.064248	0.259825	0.904363
	C205	C	-0.051482	0.215558	0.958963
	C206	C	0.009771	0.313686	0.848341
	C207	C	-0.035239	0.165098	0.757126
	C208	C	0.093870	0.264413	0.950653
	C209	C	-0.083779	0.213475	0.996703
	C210	C	0.014249	0.343271	0.801807
	H211	H	0.046319	0.139575	0.799379
	H212	H	0.052726	0.249460	1.113725
	H213	H	-0.110059	0.294790	0.954214
	H214	H	0.000310	0.301689	0.638940
	H215	H	0.049323	0.196346	0.865887
	H216	H	0.000565	0.241912	1.032295
	H217	H	-0.053452	0.298214	0.887244
	H218	H	-0.007111	0.249599	0.720820
	H219	H	-0.056173	0.213381	0.793608
	H220	H	0.067734	0.263237	0.845517
	H221	H	-0.035410	0.192903	0.959881
	H222	H	0.012953	0.317298	0.907195
	H223	H	-0.059140	0.156014	0.727070
	H224	H	0.120024	0.271406	0.927676
	H225	H	-0.092603	0.189519	1.026959
	H226	H	0.020871	0.369557	0.824544
	N227	N	-0.008176	0.111338	0.718756
	N228	N	0.119948	0.264192	1.074627
	N229	N	-0.137642	0.240116	1.035606
	N230	N	0.014480	0.369148	0.677687
	C231	C	0.502010	0.417804	0.892677
	C232	C	0.507096	0.451496	0.859317
	C233	C	0.508379	0.482565	0.900822
	C234	C	0.504571	0.481505	0.977746
	C235	C	0.499505	0.447642	1.010894
	C236	C	0.498325	0.416548	0.969453
	C237	C	0.505952	0.514819	1.022258
	C238	C	0.484293	0.517655	1.084495
	C239	C	0.485534	0.548751	1.125916
	C240	C	0.508606	0.578516	1.107339
	C241	C	0.530263	0.575882	1.045246
	C242	C	0.528927	0.544807	1.003735
	H243	H	0.468457	0.550427	1.173485
	H244	H	0.494545	0.390827	0.996546
	H245	H	0.548328	0.598517	1.029792
	H246	H	0.509934	0.452949	0.800014
	H247	H	0.465663	0.495413	1.099563
	H248	H	0.497226	0.445798	1.070213
	H249	H	0.511608	0.508157	0.873101
	H250	H	0.546484	0.543354	0.956927
	C251	C	0.500859	0.384823	0.848788
	H252	H	0.497086	0.359568	0.879430
	C253	C	0.509904	0.611562	1.151035
	H254	H	0.528607	0.633628	1.132253
	C255	C	0.505498	1.081512	-0.103769
	C256	C	0.472610	1.066489	-0.077771
	C257	C	0.470550	1.037106	-0.030830
	C258	C	0.501265	1.021225	-0.007627
	C259	C	0.534176	1.036460	-0.033734
	C260	C	0.536273	1.065915	-0.080536
	C261	C	0.498985	0.989599	0.042415
	C262	C	0.522074	0.962251	0.034945
	C263	C	0.519726	0.932597	0.081175
	C264	C	0.494264	0.928877	0.137387
	C265	C	0.471187	0.956105	0.145247
	C266	C	0.473499	0.985709	0.098865
	H267	H	0.537654	0.911706	0.074123
	H268	H	0.562014	1.077158	-0.099568
	H269	H	0.451328	0.953880	0.188364
	H270	H	0.448556	1.078182	-0.095287
	H271	H	0.541581	0.963906	-0.008853
	H272	H	0.558454	1.025392	-0.015725
	H273	H	0.444647	1.025719	-0.013093
	H274	H	0.455748	1.006615	0.107226
	C275	C	0.507684	1.112706	-0.153483
	H276	H	0.534490	1.122906	-0.171054
	C277	C	0.491443	0.897246	0.185912
	H278	H	0.470437	0.896333	0.227861
	C279	C	0.329949	0.255714	0.355188
	C280	C	0.313981	0.222740	0.331680
	C281	C	0.284301	0.220708	0.285657
	C282	C	0.269053	0.251541	0.260925
	C283	C	0.285227	0.284532	0.284569
	C284	C	0.314971	0.286598	0.330454
	C285	C	0.237167	0.249346	0.211717
	C286	C	0.210598	0.273372	0.218187
	C287	C	0.180796	0.271247	0.172490
	C288	C	0.176128	0.245066	0.117844
	C289	C	0.202526	0.220988	0.111116
	C290	C	0.232281	0.223084	0.156964
	H291	H	0.160547	0.289948	0.178693
	H292	H	0.326935	0.312402	0.347560
	H293	H	0.199555	0.200545	0.069238
	H294	H	0.325180	0.198603	0.350406
	H295	H	0.212993	0.293493	0.260763
	H296	H	0.274668	0.308878	0.265315
	H297	H	0.272196	0.194766	0.269855
	H298	H	0.252552	0.204551	0.149414
	C299	C	0.361466	0.257896	0.403891
	H300	H	0.372346	0.284781	0.419581
	C301	C	0.144457	0.242654	0.069551
	H302	H	0.142907	0.221211	0.028506
	C303	C	0.666627	0.253000	0.352841
	C304	C	0.700272	0.255436	0.386612
	C305	C	0.731337	0.256419	0.345179
	C306	C	0.730314	0.254935	0.267911
	C307	C	0.696501	0.252566	0.234356
	C308	C	0.665419	0.251694	0.275735
	C309	C	0.763602	0.255879	0.223432
	C310	C	0.765427	0.235762	0.158717
	C311	C	0.796468	0.236552	0.117257
	C312	C	0.827205	0.257615	0.138266
	C313	C	0.825588	0.277718	0.202848
	C314	C	0.794554	0.276827	0.244404
	H315	H	0.797334	0.220671	0.067742
	H316	H	0.639748	0.250001	0.248335
	H317	H	0.848987	0.294215	0.220211
	H318	H	0.701683	0.256429	0.446169
	H319	H	0.742395	0.218658	0.141658
	H320	H	0.694727	0.252156	0.174855
	H321	H	0.756855	0.257559	0.373120
	H322	H	0.793921	0.293177	0.293242
	C323	C	0.633655	0.252102	0.396680
	H324	H	0.608464	0.250464	0.365720
	C325	C	0.860173	0.258370	0.094437
	H326	H	0.883018	0.275586	0.114805
	C327	C	0.498578	0.249076	0.623956
	C328	C	0.405667	0.233822	0.473454
	C329	C	0.601845	0.252455	0.506246
	C330	C	0.483641	0.157069	0.777245
	C331	C	0.503034	0.352949	0.739726
	C332	C	0.440025	0.241878	0.445570
	C333	C	0.589544	0.222282	0.546914
	C334	C	0.492046	0.191598	0.804015
	C335	C	0.472636	0.340622	0.699931
	C336	C	0.469520	0.246688	0.492298
	C337	C	0.557092	0.220849	0.584197
	C338	C	0.496774	0.220804	0.756392
	C339	C	0.470885	0.308001	0.663175
	C340	C	0.466175	0.244504	0.569015
	C341	C	0.534958	0.249082	0.581638
	C342	C	0.494157	0.216981	0.679824
	C343	C	0.499002	0.285730	0.665458
	C344	C	0.431615	0.236441	0.596283
	C345	C	0.547557	0.279202	0.540739
	C346	C	0.485771	0.182247	0.653666
	C347	C	0.529362	0.298385	0.705415
	C348	C	0.402023	0.231542	0.550011
	C349	C	0.579942	0.280859	0.503345
	C350	C	0.480949	0.152939	0.700845
	C351	C	0.531335	0.330935	0.742285
	H352	H	0.443475	0.243676	0.386464
	H353	H	0.606075	0.200006	0.549783
	H354	H	0.494188	0.195411	0.862979
	H355	H	0.450443	0.357254	0.697305
	H356	H	0.495574	0.251837	0.467982
	H357	H	0.549303	0.197313	0.616356
	H358	H	0.502199	0.247009	0.779919
	H359	H	0.447180	0.300172	0.631684
	H360	H	0.428022	0.233900	0.655263
	H361	H	0.531506	0.301860	0.538674
	H362	H	0.482898	0.178295	0.594846
	H363	H	0.551934	0.282229	0.707231
	H364	H	0.375687	0.225422	0.572860
	H365	H	0.588865	0.304617	0.472557
	H366	H	0.474554	0.126460	0.678851
	H367	H	0.555222	0.339891	0.772506
	N368	N	0.375719	0.230139	0.426933
	N369	N	0.634001	0.253200	0.467032
	N370	N	0.480002	0.127436	0.824734
	N371	N	0.504147	0.385208	0.778729
