data_Molecule from CHK

_cell_length_a		37.463228
_cell_length_b		37.420378
_cell_length_c		55.120313
_cell_angle_alpha	90.000515
_cell_angle_beta	89.853403
_cell_angle_gamma	94.384171
_symmetry_space_group_name_H-M	'P 1'
_symmetry_Int_Tables_number		1

loop_
	_symmetry_equiv_pos_as_xyz
	x,y,z

loop_
	_atom_site_label
	_atom_site_type_symbol
	_atom_site_fract_x
	_atom_site_fract_y
	_atom_site_fract_z
	C0	C	-0.000987	0.748120	0.375429
	C1	C	-0.011958	0.652957	0.423714
	C2	C	0.002698	0.849557	0.417406
	C3	C	-0.095668	0.737400	0.326995
	C4	C	0.100584	0.752596	0.333529
	C5	C	-0.004940	0.687443	0.433362
	C6	C	-0.027519	0.838306	0.403687
	C7	C	-0.061178	0.744784	0.317425
	C8	C	0.089349	0.722144	0.347121
	C9	C	-0.001332	0.717601	0.418361
	C10	C	-0.029067	0.806393	0.390457
	C11	C	-0.031172	0.748288	0.332476
	C12	C	0.057400	0.720363	0.360334
	C13	C	-0.004671	0.714966	0.393076
	C14	C	-0.000497	0.784277	0.390051
	C15	C	-0.033952	0.744324	0.357725
	C16	C	0.035238	0.748906	0.360839
	C17	C	-0.013237	0.680463	0.383733
	C18	C	0.030175	0.796499	0.403128
	C19	C	-0.068479	0.735654	0.367004
	C20	C	0.047438	0.779794	0.347875
	C21	C	-0.016862	0.650199	0.398585
	C22	C	0.031911	0.828309	0.416439
	C23	C	-0.098594	0.732135	0.352099
	C24	C	0.079282	0.781763	0.334579
	H25	H	-0.002584	0.690478	0.452864
	H26	H	-0.050004	0.854908	0.403613
	H27	H	-0.058016	0.747522	0.297944
	H28	H	0.106000	0.699685	0.347135
	H29	H	0.003605	0.743632	0.426716
	H30	H	-0.052964	0.799044	0.380098
	H31	H	-0.005134	0.753537	0.324174
	H32	H	0.050061	0.696301	0.370604
	H33	H	-0.017082	0.677432	0.364332
	H34	H	0.053169	0.780584	0.402724
	H35	H	-0.071636	0.731556	0.386386
	H36	H	0.031479	0.802766	0.348342
	H37	H	-0.023574	0.623940	0.390808
	H38	H	0.056188	0.837098	0.426087
	H39	H	-0.124867	0.725242	0.359817
	H40	H	0.088061	0.806157	0.324973
	N41	N	-0.016224	0.622455	0.438652
	N42	N	0.004187	0.882053	0.430305
	N43	N	-0.125977	0.733103	0.311982
	N44	N	0.133106	0.754421	0.320638
	C45	C	0.328512	0.759283	0.212480
	C46	C	0.298459	0.736634	0.206040
	C47	C	0.267010	0.735655	0.219599
	C48	C	0.264072	0.757208	0.240308
	C49	C	0.294263	0.779936	0.246636
	C50	C	0.325688	0.781020	0.233043
	C51	C	0.230430	0.756036	0.254934
	C52	C	0.231238	0.759278	0.280353
	C53	C	0.199895	0.758000	0.294033
	C54	C	0.166166	0.753582	0.282966
	C55	C	0.165164	0.750337	0.257605
	C56	C	0.196534	0.751502	0.243944
	H57	H	0.201151	0.760335	0.313630
	H58	H	0.348479	0.798890	0.238314
	H59	H	0.139422	0.746923	0.248632
	H60	H	0.300212	0.719626	0.190214
	H61	H	0.256846	0.762008	0.289530
	H62	H	0.292692	0.797490	0.262178
	H63	H	0.244560	0.717294	0.214409
	H64	H	0.194889	0.749590	0.224355
	C65	C	0.361885	0.760422	0.198124
	H66	H	0.384000	0.779133	0.204393
	C67	C	0.132915	0.751939	0.297474
	H68	H	0.107639	0.748449	0.287357
	C69	C	0.677393	0.742600	0.206604
	C70	C	0.685175	0.772984	0.221118
	C71	C	0.715107	0.775836	0.236094
	C72	C	0.738700	0.748410	0.237350
	C73	C	0.730807	0.718049	0.222709
	C74	C	0.700944	0.715223	0.207663
	C75	C	0.770709	0.751383	0.253485
	C76	C	0.782224	0.721356	0.265710
	C77	C	0.811989	0.724123	0.280837
	C78	C	0.831825	0.757029	0.284408
	C79	C	0.820468	0.787108	0.272275
	C80	C	0.790620	0.784335	0.257211
	H81	H	0.820278	0.700653	0.290197
	H82	H	0.695610	0.691564	0.196521
	H83	H	0.835366	0.812830	0.274733
	H84	H	0.667219	0.794369	0.220533
	H85	H	0.767108	0.695662	0.263729
	H86	H	0.748839	0.696740	0.222822
	H87	H	0.719903	0.799343	0.247448
	H88	H	0.782904	0.807905	0.247726
	C89	C	0.645679	0.739538	0.190699
	H90	H	0.641758	0.714953	0.179800
	C91	C	0.863321	0.760029	0.300516
	H92	H	0.877370	0.786794	0.302211
	C93	C	-0.004846	0.424335	0.543216
	C94	C	0.025476	0.432759	0.528728
	C95	C	0.027901	0.462866	0.513823
	C96	C	0.000103	0.486026	0.512620
	C97	C	-0.030232	0.477446	0.527193
	C98	C	-0.032637	0.447397	0.542167
	C99	C	0.002748	0.518309	0.496633
	C100	C	-0.027332	0.529712	0.484477
	C101	C	-0.024812	0.559765	0.469514
	C102	C	0.007882	0.580028	0.466063
	C103	C	0.037997	0.568821	0.478164
	C104	C	0.035469	0.538700	0.493064
	H105	H	-0.048308	0.567948	0.460187
	H106	H	-0.056271	0.441555	0.553280
	H107	H	0.063556	0.584057	0.475813
	H108	H	0.047177	0.415183	0.529290
	H109	H	-0.052862	0.514279	0.486364
	H110	H	-0.051856	0.495100	0.527101
	H111	H	0.051394	0.468156	0.502497
	H112	H	0.059061	0.531128	0.502534
	C113	C	-0.007326	0.392537	0.559150
	H114	H	-0.031857	0.388098	0.570072
	C115	C	0.010692	0.611780	0.450091
	H116	H	0.037350	0.626050	0.448448
	C117	C	0.010804	1.076911	0.538918
	C118	C	-0.008834	1.045467	0.546538
	C119	C	-0.009486	1.014181	0.532848
	C120	C	0.009398	1.012787	0.510824
	C121	C	0.029100	1.044376	0.503297
	C122	C	0.029865	1.075657	0.517019
	C123	C	0.008533	0.979256	0.496115
	C124	C	0.008192	0.980177	0.470608
	C125	C	0.007137	0.948884	0.456897
	C126	C	0.006574	0.915116	0.468010
	C127	C	0.007011	0.914012	0.493458
	C128	C	0.007945	0.945318	0.507154
	H129	H	0.006629	0.950202	0.437245
	H130	H	0.045393	1.099554	0.510813
	H131	H	0.006645	0.888245	0.502469
	H132	H	-0.023771	1.045990	0.563401
	H133	H	0.007887	1.005772	0.461447
	H134	H	0.044582	1.044055	0.486673
	H135	H	-0.025552	0.990601	0.539015
	H136	H	0.008929	0.943636	0.526767
	C137	C	0.011548	1.110073	0.553468
	H138	H	0.027577	1.133504	0.546195
	C139	C	0.005090	0.881873	0.453517
	H140	H	0.004737	0.856600	0.463715
	C141	C	0.499857	0.747702	0.125040
	C142	C	0.397796	0.743149	0.166386
	C143	C	0.510894	0.842172	0.076150
	C144	C	0.496809	0.645888	0.083530
	C145	C	0.593868	0.759551	0.174005
	C146	C	0.408824	0.773402	0.152490
	C147	C	0.504662	0.807505	0.066717
	C148	C	0.526720	0.657119	0.097552
	C149	C	0.559249	0.752704	0.183407
	C150	C	0.440913	0.775208	0.139425
	C151	C	0.501064	0.777551	0.081896
	C152	C	0.528072	0.689136	0.110663
	C153	C	0.529445	0.748829	0.168196
	C154	C	0.463503	0.747002	0.139467
	C155	C	0.503789	0.780600	0.107190
	C156	C	0.499583	0.711358	0.110654
	C157	C	0.532609	0.751879	0.142911
	C158	C	0.451372	0.716222	0.152563
	C159	C	0.511481	0.815339	0.116378
	C160	C	0.469172	0.699121	0.097314
	C161	C	0.567292	0.760102	0.133761
	C162	C	0.419371	0.714208	0.165676
	C163	C	0.515036	0.845418	0.101344
	C164	C	0.467646	0.667226	0.084106
	C165	C	0.597221	0.763934	0.148828
	H166	H	0.391810	0.795549	0.151879
	H167	H	0.502500	0.804322	0.047212
	H168	H	0.549075	0.640364	0.098013
	H169	H	0.555976	0.750290	0.202903
	H170	H	0.447981	0.798929	0.128744
	H171	H	0.496487	0.751395	0.073665
	H172	H	0.551635	0.696378	0.121385
	H173	H	0.503315	0.743736	0.176396
	H174	H	0.467569	0.693420	0.152441
	H175	H	0.514812	0.818648	0.135802
	H176	H	0.446224	0.715106	0.097414
	H177	H	0.570687	0.763595	0.114343
	H178	H	0.410732	0.690033	0.175578
	H179	H	0.521375	0.871770	0.109070
	H180	H	0.443571	0.658448	0.074231
	H181	H	0.623561	0.770611	0.141162
	N182	N	0.365313	0.740836	0.179343
	N183	N	0.515019	0.872063	0.060655
	N184	N	0.495524	0.613357	0.070668
	N185	N	0.623662	0.764005	0.189475
	C186	C	-0.000575	0.248015	0.625721
	C187	C	-0.004345	0.144155	0.586569
	C188	C	0.092458	0.262868	0.675387
	C189	C	-0.104494	0.243306	0.664887
	C190	C	0.014059	0.341301	0.575996
	C191	C	0.026260	0.156555	0.599559
	C192	C	0.057906	0.254427	0.684513
	C193	C	-0.092263	0.274089	0.651916
	C194	C	0.005893	0.306698	0.566887
	C195	C	0.027795	0.189181	0.611978
	C196	C	0.028385	0.249698	0.669095
	C197	C	-0.059621	0.275924	0.639492
	C198	C	0.001199	0.277105	0.582330
	C199	C	-0.000688	0.211411	0.611640
	C200	C	0.031895	0.252430	0.643815
	C201	C	-0.037207	0.247578	0.639806
	C202	C	0.003689	0.280587	0.607613
	C203	C	-0.031165	0.198735	0.598524
	C204	C	0.066648	0.260939	0.634868
	C205	C	-0.049719	0.216917	0.652896
	C206	C	0.011865	0.315401	0.616542
	C207	C	-0.032953	0.166153	0.586114
	C208	C	0.096279	0.265719	0.650139
	C209	C	-0.082317	0.214829	0.665307
	C210	C	0.016601	0.345107	0.601245
	H211	H	0.048690	0.139919	0.600259
	H212	H	0.054381	0.252064	0.703993
	H213	H	-0.109038	0.296424	0.651232
	H214	H	0.003760	0.303187	0.547405
	H215	H	0.051587	0.197038	0.622314
	H216	H	0.002194	0.244120	0.677114
	H217	H	-0.051895	0.299845	0.629175
	H218	H	-0.004129	0.250878	0.574326
	H219	H	-0.053993	0.214874	0.598169
	H220	H	0.070337	0.263960	0.615439
	H221	H	-0.033436	0.194184	0.653231
	H222	H	0.014679	0.319075	0.635973
	H223	H	-0.056860	0.157167	0.576118
	H224	H	0.122692	0.272371	0.642579
	H225	H	-0.091168	0.190787	0.675286
	H226	H	0.022986	0.371580	0.608774
	N227	N	-0.005777	0.111894	0.573419
	N228	N	0.122181	0.266372	0.690969
	N229	N	-0.136759	0.241572	0.678064
	N230	N	0.017645	0.371099	0.560407
	C231	C	0.488171	0.418891	0.961621
	C232	C	0.508641	0.450017	0.954327
	C233	C	0.509579	0.481228	0.968110
	C234	C	0.490227	0.482834	0.989933
	C235	C	0.469876	0.451499	0.997213
	C236	C	0.468820	0.420299	0.983394
	C237	C	0.491363	0.516304	1.004717
	C238	C	0.491204	0.515271	1.030225
	C239	C	0.492455	0.546528	1.043984
	C240	C	0.493820	0.580368	1.032918
	C241	C	0.493741	0.581574	1.007468
	C242	C	0.492622	0.550308	0.993726
	H243	H	0.492518	0.545127	1.063639
	H244	H	0.452779	0.396603	0.989403
	H245	H	0.494569	0.607393	0.998491
	H246	H	0.523938	0.449323	0.937623
	H247	H	0.490910	0.489604	1.039353
	H248	H	0.454112	0.451974	1.013708
	H249	H	0.526213	0.504578	0.962183
	H250	H	0.491973	0.552075	0.974108
	C251	C	0.487263	0.385743	0.947048
	H252	H	0.470654	0.362551	0.954120
	C253	C	0.495140	0.613570	1.047446
	H254	H	0.495828	0.638872	1.037258
	C255	C	0.506342	1.080958	-0.033979
	C256	C	0.473271	1.062899	-0.028055
	C257	C	0.471142	1.033343	-0.012657
	C258	C	0.501977	1.020309	-0.002451
	C259	C	0.535059	1.038559	-0.008423
	C260	C	0.537209	1.068203	-0.023763
	C261	C	0.499637	0.988520	0.013981
	C262	C	0.525648	0.963340	0.013510
	C263	C	0.523276	0.933523	0.028686
	C264	C	0.494865	0.927495	0.045176
	C265	C	0.468857	0.952562	0.045775
	C266	C	0.471191	0.982307	0.030533
	H267	H	0.543507	0.914310	0.027907
	H268	H	0.563058	1.081822	-0.027968
	H269	H	0.446672	0.948525	0.058384
	H270	H	0.449154	1.072370	-0.035827
	H271	H	0.547567	0.966803	0.000652
	H272	H	0.559308	1.029711	-0.000479
	H273	H	0.445223	1.019574	-0.008881
	H274	H	0.451048	1.001540	0.031733
	C275	C	0.508580	1.112370	-0.050262
	H276	H	0.535498	1.125111	-0.053826
	C277	C	0.492080	0.895713	0.061120
	H278	H	0.468840	0.893029	0.073383
	C279	C	0.330870	0.255214	0.784939
	C280	C	0.311719	0.222322	0.780055
	C281	C	0.281903	0.220287	0.764967
	C282	C	0.269693	0.251046	0.754046
	C283	C	0.289037	0.283944	0.758982
	C284	C	0.318928	0.285995	0.774012
	C285	C	0.237682	0.248860	0.737901
	C286	C	0.213545	0.275863	0.737790
	C287	C	0.183624	0.273760	0.722795
	C288	C	0.176426	0.244621	0.707081
	C289	C	0.200394	0.217572	0.707110
	C290	C	0.230249	0.219645	0.722169
	H291	H	0.165257	0.294801	0.723098
	H292	H	0.333386	0.311702	0.777406
	H293	H	0.195432	0.194796	0.695114
	H294	H	0.320549	0.198275	0.788387
	H295	H	0.217917	0.298410	0.750041
	H296	H	0.280849	0.308097	0.750463
	H297	H	0.267301	0.194541	0.761998
	H298	H	0.248633	0.198670	0.721437
	C299	C	0.362568	0.257394	0.800874
	H300	H	0.376105	0.284196	0.803615
	C301	C	0.144646	0.242262	0.691222
	H302	H	0.141139	0.218550	0.679445
	C303	C	0.666536	0.252793	0.783897
	C304	C	0.700373	0.254425	0.794866
	C305	C	0.731560	0.255603	0.781024
	C306	C	0.730479	0.255136	0.755521
	C307	C	0.696475	0.253551	0.744625
	C308	C	0.665266	0.252482	0.758453
	C309	C	0.763924	0.256313	0.740683
	C310	C	0.765627	0.236915	0.718908
	C311	C	0.796857	0.237865	0.705122
	C312	C	0.827910	0.258386	0.712366
	C313	C	0.826400	0.277807	0.734080
	C314	C	0.795179	0.276755	0.747893
	H315	H	0.797633	0.222516	0.688462
	H316	H	0.639447	0.251419	0.749550
	H317	H	0.850037	0.293886	0.740052
	H318	H	0.701836	0.254641	0.814515
	H319	H	0.742350	0.220219	0.713023
	H320	H	0.694652	0.253919	0.725008
	H321	H	0.757217	0.256095	0.790099
	H322	H	0.794640	0.292585	0.764337
	C323	C	0.633447	0.251721	0.798563
	H324	H	0.608096	0.250775	0.788501
	C325	C	0.861114	0.259232	0.697836
	H326	H	0.884212	0.275957	0.704840
	C327	C	0.498408	0.247572	0.874885
	C328	C	0.484316	0.154470	0.924813
	C329	C	0.503281	0.351443	0.914087
	C330	C	0.404360	0.233238	0.826053
	C331	C	0.601690	0.251094	0.834976
	C332	C	0.493298	0.189024	0.933812
	C333	C	0.472299	0.338991	0.901520
	C334	C	0.438747	0.241770	0.816613
	C335	C	0.589306	0.220501	0.848053
	C336	C	0.497778	0.218556	0.918297
	C337	C	0.470442	0.306380	0.889077
	C338	C	0.468577	0.246302	0.831776
	C339	C	0.556837	0.219022	0.860666
	C340	C	0.494306	0.215067	0.893063
	C341	C	0.498983	0.284217	0.888954
	C342	C	0.465580	0.243343	0.857075
	C343	C	0.534763	0.247642	0.860501
	C344	C	0.485395	0.180312	0.884262
	C345	C	0.529852	0.296953	0.901634
	C346	C	0.431000	0.234818	0.866314
	C347	C	0.547413	0.278156	0.847305
	C348	C	0.480798	0.150683	0.899632
	C349	C	0.531962	0.329525	0.914065
	C350	C	0.401076	0.230175	0.851300
	C351	C	0.579816	0.279862	0.834659
	H352	H	0.496037	0.192664	0.953249
	H353	H	0.449790	0.355550	0.901176
	H354	H	0.442019	0.244080	0.797115
	H355	H	0.605793	0.197924	0.848492
	H356	H	0.503715	0.244764	0.926200
	H357	H	0.446309	0.298465	0.879117
	H358	H	0.494631	0.251832	0.823551
	H359	H	0.548988	0.195129	0.870982
	H360	H	0.481931	0.176586	0.864880
	H361	H	0.552715	0.280853	0.901648
	H362	H	0.427650	0.231678	0.885761
	H363	H	0.531401	0.301096	0.847118
	H364	H	0.474004	0.124188	0.892251
	H365	H	0.556156	0.338547	0.923736
	H366	H	0.374730	0.223689	0.859019
	H367	H	0.588790	0.303941	0.824768
	N368	N	0.480804	0.124421	0.940179
	N369	N	0.505038	0.383661	0.927301
	N370	N	0.373992	0.229736	0.811058
	N371	N	0.633901	0.251925	0.821780
