data_Molecule from CHK

_cell_length_a		35.648226
_cell_length_b		40.422399
_cell_length_c		7.462275
_cell_angle_alpha	82.171875
_cell_angle_beta	89.220702
_cell_angle_gamma	93.695688
_symmetry_space_group_name_H-M	'P 1'
_symmetry_Int_Tables_number		1

loop_
	_symmetry_equiv_pos_as_xyz
	x,y,z

loop_
	_atom_site_label
	_atom_site_type_symbol
	_atom_site_fract_x
	_atom_site_fract_y
	_atom_site_fract_z
	C0	C	-0.001676	0.765452	0.736371
	C1	C	-0.011817	0.668005	1.094445
	C2	C	0.002933	0.855959	1.013571
	C3	C	-0.100259	0.766102	0.378720
	C4	C	0.103533	0.766798	0.409376
	C5	C	0.001922	0.697061	1.161481
	C6	C	-0.028470	0.847271	0.914910
	C7	C	-0.063871	0.775705	0.307787
	C8	C	0.085676	0.736698	0.493341
	C9	C	0.004736	0.728125	1.051883
	C10	C	-0.030162	0.818569	0.829943
	C11	C	-0.032793	0.776113	0.419672
	C12	C	0.052739	0.736340	0.596697
	C13	C	-0.006284	0.731788	0.871015
	C14	C	-0.000624	0.797114	0.837542
	C15	C	-0.036132	0.766256	0.606806
	C16	C	0.036035	0.765834	0.623223
	C17	C	-0.021863	0.702744	0.808647
	C18	C	0.031122	0.806532	0.932747
	C19	C	-0.072508	0.756335	0.676723
	C20	C	0.054649	0.795911	0.541698
	C21	C	-0.024992	0.671790	0.917133
	C22	C	0.033050	0.835209	1.018422
	C23	C	-0.103608	0.755902	0.565844
	C24	C	0.087782	0.796518	0.438806
	H25	H	0.010780	0.695016	1.300720
	H26	H	-0.051646	0.863497	0.905388
	H27	H	-0.059292	0.782357	0.163403
	H28	H	0.097853	0.713405	0.475921
	H29	H	0.015687	0.749692	1.110075
	H30	H	-0.054949	0.813387	0.753979
	H31	H	-0.005369	0.783730	0.358644
	H32	H	0.040147	0.712351	0.657685
	H33	H	-0.031296	0.704180	0.670426
	H34	H	0.055078	0.791294	0.936333
	H35	H	-0.076356	0.748383	0.820911
	H36	H	0.042835	0.819307	0.559253
	H37	H	-0.037828	0.650279	0.863381
	H38	H	0.058312	0.842043	1.087785
	H39	H	-0.131145	0.746997	0.623015
	H40	H	0.101830	0.820140	0.379555
	N41	N	-0.013971	0.636409	1.202079
	N42	N	0.004774	0.886001	1.088123
	N43	N	-0.132327	0.763430	0.274198
	N44	N	0.137110	0.766709	0.308532
	C45	C	0.333341	0.743166	0.483726
	C46	C	0.298494	0.727217	0.450938
	C47	C	0.266937	0.729930	0.558387
	C48	C	0.268564	0.748835	0.703488
	C49	C	0.303750	0.764434	0.736665
	C50	C	0.335353	0.761684	0.629627
	C51	C	0.234490	0.752338	0.816322
	C52	C	0.237155	0.757073	0.999207
	C53	C	0.205394	0.760320	1.104159
	C54	C	0.169310	0.758810	1.031846
	C55	C	0.166387	0.754172	0.849551
	C56	C	0.198194	0.751161	0.744446
	H57	H	0.208218	0.763930	1.244737
	H58	H	0.362039	0.774080	0.658263
	H59	H	0.138843	0.753169	0.789923
	H60	H	0.296551	0.712515	0.339800
	H61	H	0.264423	0.757504	1.061524
	H62	H	0.306265	0.779541	0.845706
	H63	H	0.240727	0.716608	0.531329
	H64	H	0.194757	0.748503	0.602978
	C65	C	0.366494	0.741608	0.365823
	H66	H	0.392477	0.755225	0.400950
	C67	C	0.135458	0.760953	1.144115
	H68	H	0.108291	0.757037	1.079593
	C69	C	0.670637	0.736057	0.475161
	C70	C	0.692354	0.766427	0.434413
	C71	C	0.722638	0.774397	0.539697
	C72	C	0.732879	0.752359	0.690796
	C73	C	0.710919	0.721939	0.730831
	C74	C	0.680514	0.713974	0.625997
	C75	C	0.765888	0.760537	0.801801
	C76	C	0.767393	0.747761	0.986424
	C77	C	0.798868	0.754071	1.087741
	C78	C	0.830239	0.773905	1.010283
	C79	C	0.828440	0.787760	0.828094
	C80	C	0.797160	0.781007	0.726147
	H81	H	0.799495	0.743570	1.229329
	H82	H	0.664173	0.690352	0.660287
	H83	H	0.852230	0.803335	0.765329
	H84	H	0.684995	0.783893	0.318704
	H85	H	0.743386	0.733023	1.052633
	H86	H	0.718279	0.703912	0.843771
	H87	H	0.738116	0.798441	0.505852
	H88	H	0.797545	0.790967	0.583714
	C89	C	0.638568	0.727844	0.362507
	H90	H	0.622479	0.703890	0.404727
	C91	C	0.864278	0.779263	1.115945
	H92	H	0.886308	0.797074	1.048962
	C93	C	-0.015396	0.408094	0.691371
	C94	C	0.012661	0.419381	0.559715
	C95	C	0.014362	0.451925	0.469462
	C96	C	-0.011885	0.474814	0.506260
	C97	C	-0.040191	0.463193	0.637120
	C98	C	-0.041851	0.430683	0.727951
	C99	C	-0.009520	0.509918	0.411801
	C100	C	-0.021011	0.536651	0.497482
	C101	C	-0.018581	0.569386	0.409327
	C102	C	-0.004279	0.577006	0.231531
	C103	C	0.007201	0.550471	0.145153
	C104	C	0.004603	0.517765	0.233075
	H105	H	-0.027671	0.589640	0.477392
	H106	H	-0.063848	0.422492	0.828932
	H107	H	0.018079	0.555698	0.007125
	H108	H	0.033496	0.402298	0.530928
	H109	H	-0.031396	0.531809	0.636301
	H110	H	-0.061535	0.479755	0.665997
	H111	H	0.037118	0.459984	0.372472
	H112	H	0.012916	0.497832	0.160641
	C113	C	-0.015978	0.374278	0.794669
	H114	H	-0.037187	0.368464	0.904758
	C115	C	-0.002032	0.611392	0.134825
	H116	H	0.010844	0.614527	-0.001797
	C117	C	0.007822	0.073173	0.709388
	C118	C	-0.009315	0.043423	0.802626
	C119	C	-0.009336	0.013456	0.730524
	C120	C	0.007843	0.011697	0.561638
	C121	C	0.024679	0.041699	0.468049
	C122	C	0.024702	0.071715	0.540033
	C123	C	0.007910	-0.020547	0.485068
	C124	C	0.006212	-0.021330	0.297595
	C125	C	0.005857	-0.051320	0.225752
	C126	C	0.007260	-0.082077	0.337337
	C127	C	0.009174	-0.081529	0.524471
	C128	C	0.009542	-0.051474	0.596286
	H129	H	0.004291	-0.051288	0.080906
	H130	H	0.037907	0.094413	0.464893
	H131	H	0.010514	-0.104917	0.613767
	H132	H	-0.022965	0.044238	0.932561
	H133	H	0.004275	0.001834	0.207320
	H134	H	0.038566	0.041360	0.338286
	H135	H	-0.023709	-0.008831	0.804074
	H136	H	0.011868	-0.051948	0.741172
	C137	C	0.008673	0.104636	0.789401
	H138	H	0.022312	0.127018	0.708240
	C139	C	0.006005	-0.113741	0.259107
	H140	H	0.005891	-0.136978	0.354440
	C141	C	0.500310	0.732074	0.767769
	C142	C	0.397612	0.727237	1.115596
	C143	C	0.502909	0.828000	0.397582
	C144	C	0.499112	0.640387	0.501885
	C145	C	0.599360	0.740990	1.116051
	C146	C	0.412066	0.757547	1.017768
	C147	C	0.489871	0.798045	0.337722
	C148	C	0.531206	0.651588	0.588100
	C149	C	0.563715	0.729859	1.191189
	C150	C	0.444089	0.758991	0.906905
	C151	C	0.489372	0.767478	0.451393
	C152	C	0.531837	0.680701	0.669457
	C153	C	0.532702	0.726039	1.081961
	C154	C	0.463173	0.730412	0.886454
	C155	C	0.502322	0.765210	0.628919
	C156	C	0.500516	0.700011	0.670609
	C157	C	0.535350	0.733809	0.893237
	C158	C	0.447498	0.699974	0.978896
	C159	C	0.516681	0.795266	0.684648
	C160	C	0.468247	0.688173	0.586976
	C161	C	0.571173	0.744731	0.818977
	C162	C	0.415358	0.698285	1.089735
	C163	C	0.517481	0.825741	0.572094
	C164	C	0.467378	0.659060	0.505271
	C165	C	0.602343	0.748420	0.927129
	H166	H	0.397987	0.780150	1.029907
	H167	H	0.479754	0.798971	0.200929
	H168	H	0.555714	0.636979	0.591298
	H169	H	0.559969	0.724784	1.336868
	H170	H	0.454122	0.783044	0.835277
	H171	H	0.478628	0.745144	0.399580
	H172	H	0.557173	0.687840	0.736566
	H173	H	0.505885	0.717392	1.146666
	H174	H	0.461034	0.677220	0.964656
	H175	H	0.527101	0.794993	0.820652
	H176	H	0.443075	0.701815	0.589057
	H177	H	0.574443	0.751066	0.673426
	H178	H	0.403694	0.674420	1.158527
	H179	H	0.529659	0.848068	0.620365
	H180	H	0.441738	0.650254	0.445343
	H181	H	0.629476	0.757647	0.866104
	N182	N	0.365344	0.726002	1.227420
	N183	N	0.503200	0.859079	0.285669
	N184	N	0.498294	0.610041	0.430077
	N185	N	0.630336	0.747609	1.222240
	C186	C	0.000956	0.229186	0.271836
	C187	C	-0.003762	0.135609	0.022943
	C188	C	0.100471	0.241545	0.613025
	C189	C	-0.102687	0.225681	0.612092
	C190	C	0.007177	0.322357	-0.120455
	C191	C	0.029953	0.148210	0.090522
	C192	C	0.065546	0.228662	0.690376
	C193	C	-0.088183	0.255655	0.510950
	C194	C	-0.007014	0.292039	-0.172237
	C195	C	0.031677	0.177814	0.167774
	C196	C	0.034428	0.223771	0.583259
	C197	C	-0.055872	0.256703	0.402395
	C198	C	-0.008843	0.262403	-0.050607
	C199	C	0.000249	0.196713	0.177923
	C200	C	0.036426	0.231260	0.394331
	C201	C	-0.035941	0.228211	0.391573
	C202	C	0.002952	0.261643	0.128286
	C203	C	-0.033120	0.184259	0.105788
	C204	C	0.071900	0.242727	0.317619
	C205	C	-0.050675	0.198325	0.493734
	C206	C	0.016744	0.292307	0.178858
	C207	C	-0.035147	0.154576	0.029394
	C208	C	0.103178	0.247565	0.423625
	C209	C	-0.083125	0.197020	0.602046
	C210	C	0.018712	0.321913	0.058575
	H211	H	0.054666	0.134051	0.085607
	H212	H	0.062137	0.223744	0.836239
	H213	H	-0.102816	0.278191	0.516683
	H214	H	-0.016213	0.291823	-0.309926
	H215	H	0.058012	0.185944	0.223117
	H216	H	0.008003	0.214517	0.650044
	H217	H	-0.046263	0.280380	0.325207
	H218	H	-0.019737	0.239574	-0.096986
	H219	H	-0.058172	0.197945	0.112018
	H220	H	0.074787	0.248727	0.171793
	H221	H	-0.036244	0.175665	0.488618
	H222	H	0.025871	0.293101	0.316338
	H223	H	-0.061440	0.145393	-0.023168
	H224	H	0.130047	0.257036	0.360500
	H225	H	-0.093859	0.173592	0.679387
	H226	H	0.029679	0.345063	0.102496
	N227	N	-0.005659	0.105756	-0.053641
	N228	N	0.131952	0.247854	0.716496
	N229	N	-0.134348	0.225159	0.726939
	N230	N	0.007464	0.352901	-0.236513
	C231	C	0.496554	0.423367	0.802887
	C232	C	0.515627	0.452713	0.715274
	C233	C	0.515969	0.482546	0.788842
	C234	C	0.497305	0.484535	0.953901
	C235	C	0.478743	0.454877	1.042510
	C236	C	0.478339	0.425015	0.968889
	C237	C	0.497397	0.516670	1.031575
	C238	C	0.497462	0.517214	1.219544
	C239	C	0.497682	0.547142	1.292043
	C240	C	0.497871	0.578054	1.180565
	C241	C	0.497505	0.577726	0.992931
	C242	C	0.497302	0.547751	0.920500
	H243	H	0.497803	0.546928	1.437314
	H244	H	0.463680	0.402605	1.039744
	H245	H	0.497251	0.601234	0.903673
	H246	H	0.530354	0.451741	0.588162
	H247	H	0.498112	0.493897	1.309878
	H248	H	0.463745	0.455440	1.169237
	H249	H	0.531644	0.504546	0.719426
	H250	H	0.496230	0.548425	0.775079
	C251	C	0.495335	0.392067	0.721275
	H252	H	0.479670	0.370139	0.796975
	C253	C	0.498375	0.609672	1.258917
	H254	H	0.498992	0.632917	1.163306
	C255	C	0.503434	1.086606	-0.216460
	C256	C	0.474862	1.075573	-0.087066
	C257	C	0.472438	1.042963	0.002560
	C258	C	0.498502	1.019789	-0.032334
	C259	C	0.527273	1.031136	-0.161211
	C260	C	0.529660	1.063702	-0.251346
	C261	C	0.495942	0.984805	0.063813
	C262	C	0.507644	0.957879	-0.019603
	C263	C	0.505757	0.925363	0.071431
	C264	C	0.491898	0.918178	0.250160
	C265	C	0.479774	0.944845	0.333536
	C266	C	0.481812	0.977332	0.242680
	H267	H	0.515161	0.904980	0.005336
	H268	H	0.552119	1.071720	-0.350150
	H269	H	0.469030	0.939931	0.471858
	H270	H	0.454283	1.092950	-0.059231
	H271	H	0.517905	0.962418	-0.158667
	H272	H	0.548505	1.014355	-0.188502
	H273	H	0.449373	1.035121	0.098093
	H274	H	0.473187	0.997422	0.313109
	C275	C	0.505489	1.120782	-0.315984
	H276	H	0.527629	1.126571	-0.421777
	C277	C	0.490702	0.884111	0.350611
	H278	H	0.478410	0.881289	0.488335
	C279	C	0.332101	0.275801	0.501534
	C280	C	0.300594	0.256323	0.580174
	C281	C	0.269118	0.249838	0.479164
	C282	C	0.267774	0.262016	0.293675
	C283	C	0.299219	0.282070	0.216666
	C284	C	0.330509	0.288981	0.318202
	C285	C	0.234865	0.253505	0.182804
	C286	C	0.224746	0.275158	0.029912
	C287	C	0.194487	0.266916	-0.074909
	C288	C	0.172748	0.236600	-0.032216
	C289	C	0.182429	0.214956	0.120778
	C290	C	0.212796	0.223197	0.225197
	H291	H	0.187165	0.284123	-0.191777
	H292	H	0.354450	0.304171	0.254237
	H293	H	0.165968	0.191451	0.157100
	H294	H	0.301133	0.246204	0.722353
	H295	H	0.240268	0.299142	-0.005570
	H296	H	0.299746	0.291512	0.073531
	H297	H	0.245006	0.235384	0.546157
	H298	H	0.220024	0.205487	0.339827
	C299	C	0.366417	0.280867	0.605793
	H300	H	0.388830	0.297826	0.535689
	C301	C	0.140342	0.228315	-0.142711
	H302	H	0.124114	0.204537	-0.097894
	C303	C	0.672418	0.260697	0.537252
	C304	C	0.708524	0.261127	0.609732
	C305	C	0.740069	0.257520	0.504108
	C306	C	0.737128	0.253468	0.320434
	C307	C	0.700859	0.253571	0.248123
	C308	C	0.669279	0.257031	0.353778
	C309	C	0.770899	0.249487	0.206768
	C310	C	0.768565	0.230556	0.061929
	C311	C	0.799798	0.227363	-0.046594
	C312	C	0.834970	0.242915	-0.015503
	C313	C	0.837731	0.261270	0.130882
	C314	C	0.806453	0.264470	0.239205
	H315	H	0.797327	0.212622	-0.157423
	H316	H	0.641743	0.257055	0.293939
	H317	H	0.864726	0.273214	0.158570
	H318	H	0.711533	0.264181	0.750966
	H319	H	0.742041	0.217603	0.036126
	H320	H	0.697330	0.251583	0.105930
	H321	H	0.767358	0.257113	0.566234
	H322	H	0.809476	0.279431	0.348690
	C323	C	0.638789	0.263461	0.649901
	H324	H	0.611513	0.261206	0.584131
	C325	C	0.867765	0.240695	-0.134610
	H326	H	0.894196	0.253775	-0.100860
	C327	C	0.500320	0.268923	0.227596
	C328	C	0.485306	0.173951	0.604335
	C329	C	0.508628	0.361129	0.488787
	C330	C	0.401940	0.267575	-0.131136
	C331	C	0.607530	0.268614	-0.081695
	C332	C	0.499862	0.203301	0.665749
	C333	C	0.475418	0.351267	0.406263
	C334	C	0.437907	0.279314	-0.200477
	C335	C	0.589802	0.238899	0.007761
	C336	C	0.504322	0.233541	0.549401
	C337	C	0.472586	0.322099	0.325278
	C338	C	0.468911	0.280210	-0.088294
	C339	C	0.556182	0.238988	0.105308
	C340	C	0.495027	0.235867	0.366369
	C341	C	0.502256	0.300898	0.326126
	C342	C	0.465791	0.269797	0.098400
	C343	C	0.538066	0.268478	0.115887
	C344	C	0.480526	0.206208	0.306636
	C345	C	0.535078	0.310666	0.412517
	C346	C	0.429572	0.259014	0.167657
	C347	C	0.555865	0.298083	0.023755
	C348	C	0.475897	0.176017	0.421628
	C349	C	0.538222	0.339880	0.493138
	C350	C	0.398576	0.257869	0.056391
	C351	C	0.589644	0.298247	-0.073507
	H352	H	0.507443	0.202267	0.806496
	H353	H	0.452080	0.367245	0.402692
	H354	H	0.442498	0.286699	-0.344316
	H355	H	0.603005	0.215628	0.001824
	H356	H	0.515353	0.255543	0.603506
	H357	H	0.446821	0.316147	0.258301
	H358	H	0.496094	0.288879	-0.149001
	H359	H	0.544258	0.215373	0.174679
	H360	H	0.472992	0.206692	0.166036
	H361	H	0.558817	0.295206	0.413735
	H362	H	0.425739	0.250833	0.311625
	H363	H	0.542913	0.321490	0.028707
	H364	H	0.464589	0.153668	0.370419
	H365	H	0.564063	0.346939	0.557346
	H366	H	0.371189	0.248414	0.113395
	H367	H	0.602787	0.321529	-0.142574
	N368	N	0.482785	0.142754	0.715363
	N369	N	0.511447	0.390615	0.568608
	N370	N	0.369612	0.265648	-0.234442
	N371	N	0.640808	0.267809	-0.183623
