data_Molecule from CHK

_cell_length_a		32.086033
_cell_length_b		32.081498
_cell_length_c		5.631147
_cell_angle_alpha	90.166223
_cell_angle_beta	89.839792
_cell_angle_gamma	102.258521
_symmetry_space_group_name_H-M	'P 1'
_symmetry_Int_Tables_number		1

loop_
	_symmetry_equiv_pos_as_xyz
	x,y,z

loop_
	_atom_site_label
	_atom_site_type_symbol
	_atom_site_fract_x
	_atom_site_fract_y
	_atom_site_fract_z
	C0	C	0.002545	0.752578	0.500939
	C1	C	-0.016591	0.635938	0.968822
	C2	C	0.011879	0.870596	0.939729
	C3	C	-0.114123	0.733498	0.033332
	C4	C	0.120539	0.761983	0.062121
	C5	C	0.008983	0.675321	1.028203
	C6	C	-0.023888	0.855519	0.796965
	C7	C	-0.074810	0.759247	-0.025559
	C8	C	0.105461	0.726184	0.204638
	C9	C	0.015520	0.711270	0.881490
	C10	C	-0.025160	0.821254	0.639244
	C11	C	-0.038843	0.765750	0.121013
	C12	C	0.071216	0.724895	0.362418
	C13	C	-0.003938	0.711023	0.662631
	C14	C	0.006537	0.796953	0.635706
	C15	C	-0.038965	0.745972	0.338893
	C16	C	0.046936	0.756614	0.366266
	C17	C	-0.028384	0.670569	0.596988
	C18	C	0.044645	0.817444	0.743811
	C19	C	-0.079441	0.721649	0.404956
	C20	C	0.067430	0.794746	0.258431
	C21	C	-0.036080	0.634881	0.747466
	C22	C	0.047683	0.854155	0.883363
	C23	C	-0.115134	0.713950	0.254517
	C24	C	0.104125	0.797795	0.118812
	H25	H	0.022333	0.677248	1.202214
	H26	H	-0.051093	0.870327	0.810015
	H27	H	-0.072959	0.772797	-0.199052
	H28	H	0.120261	0.698973	0.191406
	H29	H	0.035964	0.740702	0.936343
	H30	H	-0.052494	0.812058	0.523540
	H31	H	-0.009466	0.786328	0.066543
	H32	H	0.062035	0.697536	0.477960
	H33	H	-0.042602	0.666191	0.422129
	H34	H	0.072553	0.804017	0.718130
	H35	H	-0.083789	0.707453	0.579873
	H36	H	0.054019	0.822661	0.284348
	H37	H	-0.057798	0.605908	0.692782
	H38	H	0.077703	0.870007	0.961205
	H39	H	-0.144082	0.692200	0.309174
	H40	H	0.119983	0.827831	0.041154
	N41	N	-0.023818	0.602161	1.137525
	N42	N	0.015508	0.901108	1.123163
	N43	N	-0.147876	0.726213	-0.135524
	N44	N	0.151034	0.765626	-0.121344
	C45	C	0.315654	0.760741	0.462193
	C46	C	0.298535	0.720893	0.562602
	C47	C	0.273506	0.716819	0.768225
	C48	C	0.263570	0.752167	0.888053
	C49	C	0.281001	0.792057	0.784446
	C50	C	0.306164	0.796256	0.579424
	C51	C	0.236317	0.747694	1.110347
	C52	C	0.226409	0.783044	1.230285
	C53	C	0.201391	0.778969	1.435959
	C54	C	0.184258	0.739118	1.536295
	C55	C	0.193711	0.703602	1.418915
	C56	C	0.218861	0.707801	1.213840
	H57	H	0.194077	0.806994	1.520234
	H58	H	0.318589	0.827651	0.506428
	H59	H	0.181277	0.672205	1.491879
	H60	H	0.305879	0.692870	0.478458
	H61	H	0.237762	0.814867	1.162053
	H62	H	0.274685	0.820855	0.863043
	H63	H	0.262176	0.684999	0.836555
	H64	H	0.225143	0.678999	1.135112
	C65	C	0.344081	0.765556	0.250485
	H66	H	0.361916	0.798167	0.215636
	C67	C	0.155912	0.734296	1.748353
	H68	H	0.137894	0.701724	1.782386
	C69	C	0.683322	0.745693	0.470668
	C70	C	0.710270	0.783618	0.545265
	C71	C	0.735503	0.785305	0.748880
	C72	C	0.736191	0.749214	0.890692
	C73	C	0.709061	0.711253	0.812239
	C74	C	0.683484	0.709570	0.610839
	C75	C	0.763904	0.750800	1.109361
	C76	C	0.764589	0.714709	1.251188
	C77	C	0.789810	0.716401	1.454855
	C78	C	0.816750	0.754328	1.529482
	C79	C	0.816596	0.790449	1.389274
	C80	C	0.791033	0.788761	1.187818
	H81	H	0.789139	0.687933	1.559382
	H82	H	0.662822	0.679576	0.560767
	H83	H	0.837248	0.820446	1.439390
	H84	H	0.710932	0.812089	0.440777
	H85	H	0.745050	0.684084	1.204141
	H86	H	0.707487	0.681994	0.909607
	H87	H	0.755046	0.815930	0.795910
	H88	H	0.792611	0.818018	1.090425
	C89	C	0.654122	0.742631	0.264086
	H90	H	0.636281	0.709969	0.227629
	C91	C	0.845884	0.757407	1.736378
	H92	H	0.863881	0.790038	1.772067
	C93	C	-0.003705	0.433352	1.530319
	C94	C	0.034157	0.460372	1.455504
	C95	C	0.035734	0.485627	1.252073
	C96	C	-0.000409	0.486243	1.110589
	C97	C	-0.038310	0.459054	1.189304
	C98	C	-0.039885	0.433462	1.390578
	C99	C	0.001086	0.513930	0.891906
	C100	C	-0.035040	0.514544	0.750275
	C101	C	-0.033436	0.539791	0.546777
	C102	C	0.004428	0.566839	0.472229
	C103	C	0.040577	0.566779	0.612345
	C104	C	0.038975	0.541198	0.813655
	H105	H	-0.061923	0.539059	0.442333
	H106	H	-0.069823	0.412723	1.440780
	H107	H	0.070520	0.587526	0.562312
	H108	H	0.062673	0.461055	1.559607
	H109	H	-0.065615	0.494906	0.797262
	H110	H	-0.067603	0.457436	1.092229
	H111	H	0.066319	0.505217	1.204834
	H112	H	0.068244	0.542867	0.911033
	C113	C	-0.006546	0.403970	1.735997
	H114	H	-0.039130	0.385973	1.772579
	C115	C	0.007415	0.595997	0.265530
	H116	H	0.040005	0.614097	0.229894
	C117	C	0.010532	0.065700	1.540082
	C118	C	-0.029305	0.048518	1.439749
	C119	C	-0.033360	0.023513	1.233983
	C120	C	0.001998	0.013660	1.113926
	C121	C	0.041879	0.031173	1.217379
	C122	C	0.046056	0.056294	1.422610
	C123	C	-0.002455	-0.013571	0.891494
	C124	C	0.032895	-0.023493	0.771670
	C125	C	0.028834	-0.048516	0.565976
	C126	C	-0.011005	-0.065676	0.465594
	C127	C	-0.046524	-0.056256	0.583046
	C128	C	-0.042339	-0.031097	0.788120
	H129	H	0.056864	-0.055819	0.481747
	H130	H	0.077444	0.068734	1.495649
	H131	H	-0.077917	-0.068729	0.510159
	H132	H	-0.057347	0.055739	1.524265
	H133	H	0.064710	-0.012132	0.839978
	H134	H	0.070689	0.024938	1.138566
	H135	H	-0.065179	0.012109	1.165825
	H136	H	-0.071145	-0.024842	0.866867
	C137	C	0.015317	0.093762	1.753428
	H138	H	0.047955	0.111343	1.789793
	C139	C	-0.015816	-0.094029	0.253505
	H140	H	-0.048378	-0.112069	0.219471
	C141	C	0.497557	0.747378	0.498883
	C142	C	0.379434	0.737900	0.936607
	C143	C	0.516419	0.864062	0.031516
	C144	C	0.488152	0.629335	0.060295
	C145	C	0.614217	0.766517	0.966634
	C146	C	0.394502	0.773683	0.793955
	C147	C	0.490829	0.824685	-0.027818
	C148	C	0.523935	0.644418	0.202937
	C149	C	0.574900	0.740780	1.025568
	C150	C	0.428843	0.775012	0.636787
	C151	C	0.484435	0.788692	0.118546
	C152	C	0.525244	0.678721	0.360416
	C153	C	0.538930	0.734297	0.879017
	C154	C	0.453257	0.743406	0.634239
	C155	C	0.504112	0.788879	0.336772
	C156	C	0.493532	0.702998	0.364197
	C157	C	0.539080	0.754010	0.660923
	C158	C	0.432666	0.705208	0.741110
	C159	C	0.528327	0.829395	0.403080
	C160	C	0.455421	0.682535	0.255997
	C161	C	0.579543	0.778369	0.594961
	C162	C	0.395916	0.702114	0.880291
	C163	C	0.535935	0.865112	0.252818
	C164	C	0.452366	0.645816	0.116503
	C165	C	0.615227	0.786081	0.745487
	H166	H	0.379537	0.800793	0.806137
	H167	H	0.477193	0.822854	-0.201113
	H168	H	0.551076	0.629509	0.190393
	H169	H	0.573080	0.727119	1.198787
	H170	H	0.437940	0.802268	0.520442
	H171	H	0.463819	0.759319	0.064268
	H172	H	0.552509	0.687831	0.476690
	H173	H	0.509596	0.713597	0.933121
	H174	H	0.446104	0.677306	0.715349
	H175	H	0.542501	0.833758	0.578057
	H176	H	0.427524	0.695985	0.281580
	H177	H	0.583884	0.792585	0.420090
	H178	H	0.380048	0.672065	0.957767
	H179	H	0.557575	0.894117	0.307726
	H180	H	0.422342	0.629976	0.038660
	H181	H	0.644169	0.807849	0.690914
	N182	N	0.348904	0.734241	1.119899
	N183	N	0.523594	0.897871	-0.136970
	N184	N	0.484505	0.598768	-0.122854
	N185	N	0.647966	0.773803	1.135532
	C186	C	-0.002507	0.247640	0.501315
	C187	C	-0.012712	0.128236	0.070924
	C188	C	0.113523	0.268395	0.973652
	C189	C	-0.121890	0.237427	0.931727
	C190	C	0.018385	0.363632	0.028523
	C191	C	0.023657	0.144431	0.207085
	C192	C	0.074700	0.241370	1.028968
	C193	C	-0.105703	0.273799	0.795568
	C194	C	-0.008769	0.324855	-0.026362
	C195	C	0.025098	0.178945	0.363148
	C196	C	0.038850	0.234487	0.881435
	C197	C	-0.071194	0.275244	0.639511
	C198	C	-0.015703	0.289023	0.121337
	C199	C	-0.006542	0.203313	0.366043
	C200	C	0.039011	0.254164	0.663230
	C201	C	-0.046822	0.243607	0.636614
	C202	C	0.004040	0.289159	0.339340
	C203	C	-0.044716	0.182867	0.258456
	C204	C	0.079462	0.278583	0.597528
	C205	C	-0.067257	0.205429	0.744222
	C206	C	0.028568	0.329584	0.404724
	C207	C	-0.048045	0.145808	0.121543
	C208	C	0.115026	0.286677	0.748854
	C209	C	-0.104311	0.202094	0.881120
	C210	C	0.036727	0.365120	0.253166
	H211	H	0.050903	0.129681	0.194020
	H212	H	0.072894	0.227492	1.201586
	H213	H	-0.120452	0.301047	0.808655
	H214	H	-0.022699	0.323061	-0.198840
	H215	H	0.052538	0.188268	0.477966
	H216	H	0.009654	0.213440	0.934692
	H217	H	-0.061872	0.302689	0.524718
	H218	H	-0.036837	0.259856	0.068357
	H219	H	-0.072483	0.196575	0.282787
	H220	H	0.083865	0.292592	0.422219
	H221	H	-0.053543	0.177661	0.719921
	H222	H	0.042609	0.333986	0.579964
	H223	H	-0.078080	0.130174	0.043027
	H224	H	0.144091	0.308144	0.693289
	H225	H	-0.119935	0.172054	0.959643
	H226	H	0.058295	0.394146	0.308449
	N227	N	-0.016105	0.098665	-0.117297
	N228	N	0.147763	0.274757	1.139075
	N229	N	-0.151471	0.234024	1.119877
	N230	N	0.024825	0.397826	-0.137240
	C231	C	0.489448	0.434399	-0.540690
	C232	C	0.529276	0.451429	-0.439809
	C233	C	0.533335	0.476400	-0.233925
	C234	C	0.497983	0.486299	-0.114011
	C235	C	0.458093	0.468718	-0.217167
	C236	C	0.453913	0.443631	-0.422521
	C237	C	0.502442	0.513507	0.108501
	C238	C	0.467097	0.523444	0.228301
	C239	C	0.471162	0.548420	0.434170
	C240	C	0.510990	0.565417	0.535142
	C241	C	0.546519	0.556157	0.417035
	C242	C	0.542332	0.531046	0.211779
	H243	H	0.443139	0.555756	0.518315
	H244	H	0.422518	0.431139	-0.495336
	H245	H	0.577917	0.568656	0.489791
	H246	H	0.557310	0.444170	-0.524214
	H247	H	0.435289	0.512166	0.159716
	H248	H	0.429276	0.474863	-0.137977
	H249	H	0.565148	0.487732	-0.165533
	H250	H	0.571143	0.524869	0.132697
	C251	C	0.484661	0.406189	-0.753422
	H252	H	0.452039	0.388519	-0.789342
	C253	C	0.515811	0.593919	0.746607
	H254	H	0.548359	0.612037	0.780177
	C255	C	0.503587	1.066417	0.469142
	C256	C	0.465667	1.039599	0.544805
	C257	C	0.464066	1.014405	0.748494
	C258	C	0.500230	1.013702	0.889632
	C259	C	0.538129	1.040907	0.811014
	C260	C	0.539724	1.066442	0.609500
	C261	C	0.498721	0.986035	1.108398
	C262	C	0.534859	0.985365	1.249809
	C263	C	0.533235	0.960175	1.453547
	C264	C	0.495315	0.933321	1.528928
	C265	C	0.459204	0.933264	1.388277
	C266	C	0.460824	0.958791	1.186733
	H267	H	0.561739	0.960855	1.557753
	H268	H	0.569664	1.087181	0.559340
	H269	H	0.429257	0.912524	1.438312
	H270	H	0.437135	1.038968	0.440925
	H271	H	0.565466	1.004882	1.202313
	H272	H	0.567401	1.042587	0.908393
	H273	H	0.433449	0.994939	0.796250
	H274	H	0.431571	0.957073	1.089117
	C275	C	0.506424	1.095846	0.263650
	H276	H	0.538974	1.114021	0.227994
	C277	C	0.492357	0.904047	1.735116
	H278	H	0.459772	0.885923	1.770620
	C279	C	0.316529	0.253927	0.529773
	C280	C	0.289622	0.216051	0.454136
	C281	C	0.264409	0.214523	0.250578
	C282	C	0.263793	0.250718	0.109523
	C283	C	0.291077	0.288574	0.188164
	C284	C	0.316621	0.290099	0.389583
	C285	C	0.236134	0.249291	-0.109194
	C286	C	0.235518	0.285485	-0.250257
	C287	C	0.210293	0.283959	-0.453768
	C288	C	0.183374	0.246084	-0.529345
	C289	C	0.183290	0.209912	-0.389175
	C290	C	0.208846	0.211435	-0.187811
	H291	H	0.210971	0.312512	-0.557552
	H292	H	0.337423	0.320006	0.439786
	H293	H	0.162475	0.180009	-0.439314
	H294	H	0.288936	0.187498	0.557933
	H295	H	0.255077	0.316064	-0.202571
	H296	H	0.292820	0.317868	0.090885
	H297	H	0.244853	0.183943	0.202867
	H298	H	0.207105	0.182142	-0.090527
	C299	C	0.345985	0.256680	0.735053
	H300	H	0.364258	0.289198	0.770643
	C301	C	0.153851	0.243345	-0.734300
	H302	H	0.135732	0.210794	-0.770644
	C303	C	0.684474	0.239206	0.538185
	C304	C	0.701521	0.279030	0.437274
	C305	C	0.726479	0.283070	0.231355
	C306	C	0.736354	0.247703	0.111426
	C307	C	0.718749	0.207817	0.214572
	C308	C	0.693673	0.203656	0.419944
	C309	C	0.763559	0.252139	-0.111081
	C310	C	0.773445	0.216773	-0.230967
	C311	C	0.798417	0.220814	-0.436829
	C312	C	0.815463	0.260638	-0.537743
	C313	C	0.806243	0.296186	-0.419592
	C314	C	0.781156	0.292025	-0.214261
	H315	H	0.805674	0.192766	-0.521142
	H316	H	0.681162	0.172258	0.492706
	H317	H	0.818756	0.327584	-0.492348
	H318	H	0.694283	0.307080	0.521665
	H319	H	0.762114	0.184962	-0.162497
	H320	H	0.724864	0.178987	0.135335
	H321	H	0.737813	0.314882	0.162891
	H322	H	0.775027	0.320854	-0.135085
	C323	C	0.656273	0.234426	0.750954
	H324	H	0.638595	0.201802	0.786829
	C325	C	0.843729	0.265415	-0.750238
	H326	H	0.861206	0.298079	-0.786948
	C327	C	0.502425	0.252284	0.498886
	C328	C	0.386397	0.231582	0.026545
	C329	C	0.621809	0.262445	0.068539
	C330	C	0.481472	0.136303	0.971762
	C331	C	0.512674	0.371705	0.929104
	C332	C	0.425226	0.258596	-0.028773
	C333	C	0.605611	0.226082	0.204745
	C334	C	0.508619	0.175079	1.026725
	C335	C	0.476306	0.355523	0.792919
	C336	C	0.461076	0.265462	0.118758
	C337	C	0.571098	0.224650	0.360757
	C338	C	0.515577	0.210908	0.878994
	C339	C	0.474850	0.320996	0.636946
	C340	C	0.460908	0.245778	0.336950
	C341	C	0.546738	0.256298	0.363602
	C342	C	0.495858	0.210772	0.660911
	C343	C	0.506477	0.296614	0.634120
	C344	C	0.420450	0.221376	0.402666
	C345	C	0.567182	0.294467	0.255931
	C346	C	0.471326	0.170351	0.595496
	C347	C	0.544654	0.317045	0.741736
	C348	C	0.384885	0.213301	0.251348
	C349	C	0.604234	0.297785	0.119043
	C350	C	0.463154	0.134817	0.747048
	C351	C	0.547996	0.354109	0.878610
	H352	H	0.427035	0.272476	-0.201388
	H353	H	0.620357	0.198831	0.191734
	H354	H	0.522528	0.176874	1.199265
	H355	H	0.449073	0.370293	0.805916
	H356	H	0.490276	0.286504	0.065523
	H357	H	0.561766	0.197210	0.475575
	H358	H	0.536712	0.240072	0.932002
	H359	H	0.447407	0.311677	0.522139
	H360	H	0.416040	0.207369	0.577975
	H361	H	0.553475	0.322240	0.280176
	H362	H	0.457291	0.165953	0.420237
	H363	H	0.572411	0.303319	0.717443
	H364	H	0.355811	0.191852	0.306932
	H365	H	0.619864	0.327818	0.040467
	H366	H	0.441592	0.105793	0.691701
	H367	H	0.578032	0.369733	0.957160
	N368	N	0.352152	0.225241	-0.138821
	N369	N	0.651414	0.265834	-0.119478
	N370	N	0.475034	0.102087	1.137367
	N371	N	0.516071	0.401318	1.117105
