data_Molecule from CHK

_cell_length_a		43.152233
_cell_length_b		43.103797
_cell_length_c		6.681911
_cell_angle_alpha	87.752363
_cell_angle_beta	92.063844
_cell_angle_gamma	94.225081
_symmetry_space_group_name_H-M	'P 1'
_symmetry_Int_Tables_number		1

loop_
	_symmetry_equiv_pos_as_xyz
	x,y,z

loop_
	_atom_site_label
	_atom_site_type_symbol
	_atom_site_fract_x
	_atom_site_fract_y
	_atom_site_fract_z
	C0	C	0.003468	0.754125	0.872873
	C1	C	0.000263	0.664549	1.223047
	C2	C	0.010455	0.844735	1.168706
	C3	C	-0.085870	0.751281	0.523582
	C4	C	0.094116	0.761189	0.576870
	C5	C	0.011573	0.692087	1.313534
	C6	C	-0.017755	0.832541	1.083555
	C7	C	-0.058329	0.762688	0.433047
	C8	C	0.081725	0.732842	0.660285
	C9	C	0.012823	0.720743	1.206848
	C10	C	-0.020323	0.803307	0.999929
	C11	C	-0.029746	0.763818	0.539500
	C12	C	0.052475	0.730266	0.743845
	C13	C	0.002356	0.723243	1.006486
	C14	C	0.004922	0.784597	0.996764
	C15	C	-0.027304	0.752992	0.739348
	C16	C	0.033947	0.755640	0.748680
	C17	C	-0.009398	0.695471	0.918658
	C18	C	0.032780	0.796539	1.089064
	C19	C	-0.055110	0.741362	0.827708
	C20	C	0.046061	0.783632	0.657746
	C21	C	-0.010726	0.666945	1.023675
	C22	C	0.035675	0.826022	1.170710
	C23	C	-0.083568	0.740166	0.722943
	C24	C	0.075564	0.786534	0.576249
	H25	H	0.019727	0.690741	1.468480
	H26	H	-0.037555	0.846673	1.078454
	H27	H	-0.059616	0.771015	0.278265
	H28	H	0.095723	0.712935	0.664312
	H29	H	0.022201	0.741388	1.280854
	H30	H	-0.042439	0.795676	0.930568
	H31	H	-0.009091	0.773297	0.465602
	H32	H	0.044691	0.708033	0.811912
	H33	H	-0.017536	0.696171	0.763215
	H34	H	0.052922	0.782925	1.089436
	H35	H	-0.054471	0.733149	0.983191
	H36	H	0.032567	0.803861	0.658362
	H37	H	-0.020431	0.646203	0.950890
	H38	H	0.057907	0.835305	1.231501
	H39	H	-0.104330	0.730466	0.795905
	H40	H	0.084993	0.808857	0.516678
	N41	N	-0.001775	0.635364	1.326143
	N42	N	0.013637	0.875825	1.223970
	N43	N	-0.114955	0.749245	0.420474
	N44	N	0.125232	0.764359	0.522318
	C45	C	0.331514	0.752991	0.154796
	C46	C	0.309747	0.731503	0.065741
	C47	C	0.278067	0.732215	0.095889
	C48	C	0.266516	0.754518	0.216101
	C49	C	0.288509	0.775855	0.306152
	C50	C	0.320199	0.775169	0.276084
	C51	C	0.232510	0.755491	0.247425
	C52	C	0.221588	0.764950	0.429487
	C53	C	0.189977	0.765490	0.461144
	C54	C	0.167595	0.756605	0.312582
	C55	C	0.178259	0.747392	0.129816
	C56	C	0.209963	0.746917	0.098135
	H57	H	0.182180	0.772665	0.603597
	H58	H	0.336546	0.792073	0.346094
	H59	H	0.161407	0.740635	0.012275
	H60	H	0.318102	0.714207	-0.028696
	H61	H	0.238068	0.771208	0.549944
	H62	H	0.280567	0.793768	0.397116
	H63	H	0.262047	0.714854	0.027633
	H64	H	0.217458	0.740180	-0.045968
	C65	C	0.364870	0.753564	0.111450
	H66	H	0.380083	0.772256	0.178113
	C67	C	0.134139	0.755595	0.354659
	H68	H	0.117615	0.746491	0.238691
	C69	C	0.671525	0.739418	0.051632
	C70	C	0.679324	0.751084	0.241164
	C71	C	0.710197	0.755138	0.308780
	C72	C	0.734815	0.748067	0.189546
	C73	C	0.726742	0.736287	-0.000231
	C74	C	0.695906	0.732002	-0.067359
	C75	C	0.767996	0.752959	0.260119
	C76	C	0.791004	0.734599	0.194055
	C77	C	0.821842	0.738916	0.261567
	C78	C	0.831238	0.761787	0.399049
	C79	C	0.808496	0.780308	0.464996
	C80	C	0.777708	0.776100	0.396308
	H81	H	0.839100	0.724205	0.210708
	H82	H	0.690463	0.723101	-0.215015
	H83	H	0.815221	0.798160	0.571217
	H84	H	0.660714	0.757037	0.334227
	H85	H	0.784601	0.716039	0.092507
	H86	H	0.744907	0.731142	-0.099050
	H87	H	0.715243	0.763665	0.457631
	H88	H	0.760997	0.791385	0.446932
	C89	C	0.639171	0.736531	-0.027410
	H90	H	0.635899	0.726744	-0.176987
	C91	C	0.863417	0.765052	0.481193
	H92	H	0.867924	0.781527	0.602248
	C93	C	-0.009664	0.421256	0.693140
	C94	C	0.001941	0.429351	0.503453
	C95	C	0.005539	0.460324	0.435803
	C96	C	-0.001924	0.484764	0.555178
	C97	C	-0.013708	0.476387	0.744919
	C98	C	-0.017550	0.445445	0.812060
	C99	C	0.002644	0.518064	0.484836
	C100	C	-0.015883	0.540883	0.551621
	C101	C	-0.011769	0.571841	0.484652
	C102	C	0.011072	0.581553	0.347121
	C103	C	0.029779	0.559007	0.280641
	C104	C	0.025774	0.528106	0.348776
	H105	H	-0.026606	0.588949	0.536043
	H106	H	-0.026427	0.439772	0.959793
	H107	H	0.047625	0.565975	0.174459
	H108	H	0.008230	0.410899	0.410319
	H109	H	-0.034414	0.534235	0.653300
	H110	H	-0.019183	0.494404	0.843803
	H111	H	0.014042	0.465586	0.286846
	H112	H	0.041209	0.511568	0.297735
	C113	C	-0.011904	0.388829	0.772649
	H114	H	-0.021767	0.385290	0.922096
	C115	C	0.014179	0.613845	0.265405
	H116	H	0.030708	0.618552	0.144489
	C117	C	0.003207	1.081581	0.607764
	C118	C	-0.018238	1.059609	0.696226
	C119	C	-0.017672	1.027990	0.662966
	C120	C	0.004435	1.016699	0.540044
	C121	C	0.025696	1.038902	0.450315
	C122	C	0.025164	1.070537	0.483576
	C123	C	0.005283	0.982734	0.506061
	C124	C	0.014532	0.972146	0.322579
	C125	C	0.015003	0.940565	0.288948
	C126	C	0.006282	0.917887	0.436902
	C127	C	-0.002682	0.928221	0.621138
	C128	C	-0.003096	0.959888	0.654770
	H129	H	0.022015	0.933020	0.145470
	H130	H	0.042022	1.087048	0.413908
	H131	H	-0.009288	0.911139	0.738293
	H132	H	-0.035381	1.067745	0.792780
	H133	H	0.020672	0.988871	0.202650
	H134	H	0.043435	1.031156	0.357073
	H135	H	-0.034993	1.011819	0.730949
	H136	H	-0.009637	0.967116	0.799953
	C137	C	0.003956	1.114820	0.655024
	H138	H	0.022500	1.130255	0.588030
	C139	C	0.005212	0.884475	0.393117
	H140	H	-0.003633	0.867740	0.509327
	C141	C	0.496235	0.743622	0.629110
	C142	C	0.406201	0.737330	0.933711
	C143	C	0.497666	0.834142	0.289639
	C144	C	0.488818	0.653511	0.325817
	C145	C	0.586676	0.744667	0.966278
	C146	C	0.418521	0.765447	0.846278
	C147	C	0.486264	0.806811	0.196902
	C148	C	0.517113	0.665651	0.410594
	C149	C	0.559334	0.733443	1.060022
	C150	C	0.447584	0.767713	0.760293
	C151	C	0.485888	0.777766	0.298945
	C152	C	0.519715	0.694711	0.496511
	C153	C	0.530335	0.733133	0.958546
	C154	C	0.466058	0.742286	0.756149
	C155	C	0.497288	0.774674	0.497058
	C156	C	0.494437	0.713304	0.503687
	C157	C	0.527297	0.744422	0.759952
	C158	C	0.453827	0.714408	0.847705
	C159	C	0.509339	0.802190	0.586600
	C160	C	0.466431	0.701352	0.413539
	C161	C	0.554833	0.756215	0.669143
	C162	C	0.424529	0.711847	0.932237
	C163	C	0.510093	0.831015	0.485514
	C164	C	0.463532	0.672050	0.329243
	C165	C	0.583619	0.756904	0.769648
	H166	H	0.404657	0.785449	0.838726
	H167	H	0.477184	0.808607	0.044040
	H168	H	0.537002	0.651655	0.415871
	H169	H	0.561082	0.724489	1.213361
	H170	H	0.455182	0.789760	0.689039
	H171	H	0.476300	0.757289	0.223695
	H172	H	0.541882	0.702182	0.565738
	H173	H	0.509846	0.723729	1.034786
	H174	H	0.467075	0.694013	0.846028
	H175	H	0.518097	0.801056	0.740714
	H176	H	0.446197	0.714790	0.416548
	H177	H	0.553733	0.764881	0.514638
	H178	H	0.415050	0.689633	0.993188
	H179	H	0.520487	0.851301	0.560138
	H180	H	0.441216	0.662751	0.269814
	H181	H	0.603914	0.767153	0.694063
	N182	N	0.375345	0.734137	0.995813
	N183	N	0.498375	0.863696	0.190346
	N184	N	0.485304	0.622645	0.264023
	N185	N	0.616134	0.745501	1.065611
	C186	C	-0.005407	0.246682	0.127593
	C187	C	-0.012318	0.155521	-0.160981
	C188	C	0.084541	0.250118	0.471834
	C189	C	-0.096603	0.239029	0.416143
	C190	C	-0.002254	0.336579	-0.220384
	C191	C	0.016059	0.168241	-0.080606
	C192	C	0.057381	0.237434	0.561761
	C193	C	-0.084042	0.267549	0.335640
	C194	C	-0.014826	0.309303	-0.308900
	C195	C	0.018518	0.197624	0.000915
	C196	C	0.028504	0.236546	0.458521
	C197	C	-0.054627	0.270260	0.254394
	C198	C	-0.015670	0.280456	-0.204298
	C199	C	-0.006786	0.216273	0.003102
	C200	C	0.025535	0.247789	0.259781
	C201	C	-0.035798	0.245079	0.252587
	C202	C	-0.004496	0.277631	-0.005528
	C203	C	-0.034580	0.204125	-0.088786
	C204	C	0.053047	0.259995	0.170390
	C205	C	-0.047777	0.217161	0.344945
	C206	C	0.007527	0.305269	0.082627
	C207	C	-0.037335	0.174525	-0.168923
	C208	C	0.081674	0.261442	0.272983
	C209	C	-0.077404	0.214154	0.424823
	C210	C	0.008930	0.333871	-0.021334
	H211	H	0.035995	0.154303	-0.072478
	H212	H	0.059095	0.228288	0.714689
	H213	H	-0.098123	0.287391	0.327049
	H214	H	-0.023892	0.310897	-0.461871
	H215	H	0.040626	0.205419	0.069647
	H216	H	0.008085	0.226616	0.533327
	H217	H	-0.046947	0.292460	0.185466
	H218	H	-0.025482	0.259943	-0.278175
	H219	H	-0.054797	0.217653	-0.090314
	H220	H	0.052063	0.268409	0.015339
	H221	H	-0.034096	0.197039	0.346913
	H222	H	0.015880	0.304389	0.237647
	H223	H	-0.059435	0.165246	-0.231746
	H224	H	0.101967	0.271811	0.197862
	H225	H	-0.086549	0.191953	0.487911
	H226	H	0.019196	0.354262	0.052755
	N227	N	-0.015401	0.124937	-0.227357
	N228	N	0.114101	0.250030	0.569402
	N229	N	-0.127223	0.235662	0.481848
	N230	N	-0.002241	0.366078	-0.319812
	C231	C	0.504029	0.415056	-0.075808
	C232	C	0.512699	0.437815	-0.223385
	C233	C	0.512629	0.469371	-0.188154
	C234	C	0.503947	0.479871	-0.003098
	C235	C	0.495692	0.456948	0.145407
	C236	C	0.495715	0.425289	0.110189
	C237	C	0.503615	0.513844	0.032303
	C238	C	0.481976	0.525377	0.157638
	C239	C	0.481827	0.557036	0.191041
	C240	C	0.503291	0.578786	0.100690
	C241	C	0.524717	0.567507	-0.026339
	C242	C	0.524838	0.535844	-0.059663
	H243	H	0.465018	0.565381	0.289187
	H244	H	0.489262	0.408145	0.227323
	H245	H	0.541501	0.583855	-0.098149
	H246	H	0.519340	0.430361	-0.367940
	H247	H	0.464673	0.509373	0.227261
	H248	H	0.489581	0.464112	0.291662
	H249	H	0.518667	0.486152	-0.307967
	H250	H	0.542220	0.527922	-0.154963
	C251	C	0.502910	0.381692	-0.121132
	H252	H	0.494500	0.364783	-0.004677
	C253	C	0.504290	0.612127	0.145456
	H254	H	0.522705	0.627358	0.075329
	C255	C	0.509204	1.079239	0.853149
	C256	C	0.486810	1.069166	0.992867
	C257	C	0.483501	1.038241	1.061355
	C258	C	0.502487	1.015827	0.994407
	C259	C	0.525257	1.026257	0.856774
	C260	C	0.528465	1.057137	0.787167
	C261	C	0.498652	0.982544	1.066118
	C262	C	0.506250	0.958159	0.946744
	C263	C	0.503008	0.927190	1.014936
	C264	C	0.491755	0.919061	1.205485
	C265	C	0.483730	0.943195	1.324399
	C266	C	0.487193	0.974127	1.256653
	H267	H	0.509305	0.908766	0.921603
	H268	H	0.546057	1.064424	0.679885
	H269	H	0.475012	0.937489	1.472502
	H270	H	0.471632	1.085944	1.044550
	H271	H	0.514519	0.963463	0.797260
	H272	H	0.541031	1.010047	0.805685
	H273	H	0.465237	1.031282	1.164391
	H274	H	0.481617	0.992110	1.355486
	C275	C	0.511520	1.111536	0.771098
	H276	H	0.527905	1.116647	0.649798
	C277	C	0.489340	0.886608	1.284299
	H278	H	0.479497	0.883075	1.433842
	C279	C	0.329454	0.258904	0.894888
	C280	C	0.319174	0.236435	0.756639
	C281	C	0.288218	0.233201	0.690093
	C282	C	0.265982	0.252336	0.757642
	C283	C	0.276624	0.275181	0.893727
	C284	C	0.307528	0.278315	0.961382
	C285	C	0.232666	0.248632	0.688101
	C286	C	0.208509	0.256460	0.808752
	C287	C	0.177517	0.253489	0.742349
	C288	C	0.169125	0.242265	0.552467
	C289	C	0.193018	0.233935	0.432502
	C290	C	0.223980	0.237138	0.498431
	H291	H	0.159284	0.259999	0.836571
	H292	H	0.314971	0.295970	1.067527
	H293	H	0.187105	0.225226	0.284901
	H294	H	0.335816	0.221145	0.704578
	H295	H	0.214012	0.264716	0.957795
	H296	H	0.260561	0.291079	0.945132
	H297	H	0.281095	0.214886	0.588137
	H298	H	0.241782	0.231354	0.398753
	C299	C	0.361773	0.261175	0.975137
	H300	H	0.367007	0.277644	1.095501
	C301	C	0.136654	0.240296	0.475244
	H302	H	0.132882	0.230518	0.325921
	C303	C	0.665412	0.254599	0.820934
	C304	C	0.688021	0.263598	0.967865
	C305	C	0.719579	0.263574	0.932977
	C306	C	0.730222	0.254603	0.748960
	C307	C	0.707445	0.246048	0.601010
	C308	C	0.675792	0.246023	0.635895
	C309	C	0.764181	0.254251	0.713855
	C310	C	0.775775	0.232330	0.590947
	C311	C	0.807404	0.232161	0.557363
	C312	C	0.829072	0.253884	0.645093
	C313	C	0.817740	0.275573	0.769926
	C314	C	0.786099	0.275710	0.803478
	H315	H	0.815782	0.215138	0.460974
	H316	H	0.658765	0.239323	0.519233
	H317	H	0.834024	0.292552	0.839769
	H318	H	0.680450	0.270443	1.111675
	H319	H	0.759838	0.214829	0.523371
	H320	H	0.714717	0.239737	0.455411
	H321	H	0.736251	0.269871	1.052302
	H322	H	0.778122	0.293284	0.897002
	C323	C	0.632040	0.253371	0.865818
	H324	H	0.615301	0.244598	0.750066
	C325	C	0.862366	0.254863	0.599239
	H326	H	0.877519	0.273632	0.665510
	C327	C	0.500696	0.250644	0.371369
	C328	C	0.495985	0.161759	0.729482
	C329	C	0.507923	0.342480	0.649447
	C330	C	0.411901	0.245575	0.015454
	C331	C	0.592581	0.258478	0.093542
	C332	C	0.508600	0.189193	0.815713
	C333	C	0.479466	0.329754	0.570850
	C334	C	0.439254	0.258309	-0.071747
	C335	C	0.579930	0.229878	0.171747
	C336	C	0.510137	0.217659	0.706874
	C337	C	0.476790	0.300120	0.492850
	C338	C	0.467699	0.259948	0.036338
	C339	C	0.550269	0.227005	0.249470
	C340	C	0.499516	0.219934	0.506713
	C341	C	0.501977	0.281279	0.493628
	C342	C	0.470030	0.249314	0.236647
	C343	C	0.531331	0.252126	0.248756
	C344	C	0.487784	0.192036	0.420414
	C345	C	0.529756	0.293374	0.586209
	C346	C	0.442215	0.237441	0.323849
	C347	C	0.543341	0.280037	0.156210
	C348	C	0.485970	0.163729	0.527963
	C349	C	0.532743	0.323210	0.662684
	C350	C	0.413933	0.235526	0.217075
	C351	C	0.573205	0.283223	0.080061
	H352	H	0.517106	0.188007	0.969986
	H353	H	0.459708	0.343951	0.563127
	H354	H	0.438018	0.266836	-0.226142
	H355	H	0.594203	0.210167	0.179538
	H356	H	0.520015	0.238297	0.778834
	H357	H	0.454657	0.292242	0.424689
	H358	H	0.488277	0.269929	-0.036243
	H359	H	0.542448	0.204773	0.317463
	H360	H	0.479922	0.192476	0.264424
	H361	H	0.549800	0.279586	0.590657
	H362	H	0.442697	0.229565	0.479985
	H363	H	0.529459	0.300025	0.151622
	H364	H	0.476384	0.142868	0.456004
	H365	H	0.554853	0.332430	0.725686
	H366	H	0.393135	0.225854	0.289777
	H367	H	0.582360	0.305432	0.017147
	N368	N	0.494973	0.132553	0.832129
	N369	N	0.510860	0.373368	0.707876
	N370	N	0.382687	0.244524	-0.086132
	N371	N	0.623495	0.261614	0.035610
