data_Molecule from CHK

_cell_length_a		37.462390
_cell_length_b		37.435763
_cell_length_c		27.548321
_cell_angle_alpha	89.993769
_cell_angle_beta	89.981012
_cell_angle_gamma	94.648316
_symmetry_space_group_name_H-M	'P 1'
_symmetry_Int_Tables_number		1

loop_
	_symmetry_equiv_pos_as_xyz
	x,y,z

loop_
	_atom_site_label
	_atom_site_type_symbol
	_atom_site_fract_x
	_atom_site_fract_y
	_atom_site_fract_z
	C0	C	-0.001781	0.747955	0.750542
	C1	C	-0.013009	0.652717	0.846992
	C2	C	0.001854	0.849334	0.834589
	C3	C	-0.096393	0.736904	0.653141
	C4	C	0.099930	0.752917	0.667244
	C5	C	-0.006051	0.687208	0.866383
	C6	C	-0.028320	0.838008	0.806907
	C7	C	-0.061854	0.744343	0.634162
	C8	C	0.088691	0.722444	0.694449
	C9	C	-0.002355	0.717391	0.836420
	C10	C	-0.029853	0.806110	0.780418
	C11	C	-0.031869	0.747949	0.664430
	C12	C	0.056701	0.720510	0.720727
	C13	C	-0.005541	0.714775	0.785800
	C14	C	-0.001312	0.784085	0.779824
	C15	C	-0.034716	0.744032	0.714944
	C16	C	0.034497	0.748914	0.721555
	C17	C	-0.014045	0.680261	0.767005
	C18	C	0.029319	0.796379	0.806235
	C19	C	-0.069288	0.735277	0.733340
	C20	C	0.046706	0.779835	0.695626
	C21	C	-0.017757	0.649971	0.796669
	C22	C	0.031038	0.828173	0.832891
	C23	C	-0.099382	0.731662	0.703364
	C24	C	0.078590	0.781955	0.669180
	H25	H	-0.003809	0.690228	0.905423
	H26	H	-0.050779	0.854545	0.806576
	H27	H	-0.058624	0.747048	0.595196
	H28	H	0.105372	0.700090	0.694613
	H29	H	0.002530	0.743424	0.853196
	H30	H	-0.053711	0.798708	0.759494
	H31	H	-0.005794	0.753245	0.647949
	H32	H	0.049365	0.696444	0.741299
	H33	H	-0.017769	0.677243	0.728151
	H34	H	0.052295	0.780538	0.805599
	H35	H	-0.072495	0.731198	0.772111
	H36	H	0.030720	0.802709	0.696444
	H37	H	-0.024414	0.623702	0.781031
	H38	H	0.055280	0.837025	0.852398
	H39	H	-0.125694	0.724724	0.718679
	H40	H	0.087371	0.806366	0.649954
	N41	N	-0.017364	0.622182	0.876816
	N42	N	0.003351	0.881824	0.860394
	N43	N	-0.126714	0.732543	0.622998
	N44	N	0.132482	0.754898	0.641586
	C45	C	0.327852	0.760219	0.425558
	C46	C	0.297807	0.737318	0.412865
	C47	C	0.266384	0.736282	0.439968
	C48	C	0.263464	0.758029	0.481181
	C49	C	0.293649	0.781002	0.493660
	C50	C	0.325050	0.782143	0.466486
	C51	C	0.229833	0.756783	0.510385
	C52	C	0.230660	0.760231	0.561222
	C53	C	0.199314	0.758835	0.588517
	C54	C	0.165566	0.754092	0.566317
	C55	C	0.164546	0.750664	0.515592
	C56	C	0.195918	0.751943	0.488337
	H57	H	0.200583	0.761326	0.627717
	H58	H	0.347838	0.800205	0.476881
	H59	H	0.138791	0.747007	0.497591
	H60	H	0.299545	0.720159	0.381372
	H61	H	0.256287	0.763217	0.579627
	H62	H	0.292087	0.798698	0.524589
	H63	H	0.243945	0.717727	0.429740
	H64	H	0.194260	0.749880	0.449150
	C65	C	0.361179	0.761411	0.396813
	H66	H	0.383308	0.780311	0.409156
	C67	C	0.132305	0.752304	0.595249
	H68	H	0.107022	0.748596	0.574937
	C69	C	0.676546	0.741966	0.411704
	C70	C	0.685111	0.772685	0.439873
	C71	C	0.715183	0.775472	0.469694
	C72	C	0.738145	0.747647	0.472933
	C73	C	0.729473	0.716948	0.444508
	C74	C	0.699466	0.714183	0.414544
	C75	C	0.770289	0.750577	0.505099
	C76	C	0.781235	0.720719	0.530419
	C77	C	0.811082	0.723489	0.560658
	C78	C	0.831571	0.756222	0.566909
	C79	C	0.820806	0.786121	0.541726
	C80	C	0.790881	0.783348	0.511616
	H81	H	0.818917	0.700164	0.580080
	H82	H	0.693521	0.690254	0.392929
	H83	H	0.836219	0.811705	0.545929
	H84	H	0.667652	0.794390	0.438147
	H85	H	0.765602	0.695183	0.527171
	H86	H	0.747007	0.695307	0.445309
	H87	H	0.720578	0.799267	0.491739
	H88	H	0.783626	0.806765	0.491945
	C89	C	0.644656	0.738983	0.380072
	H90	H	0.640066	0.714116	0.358965
	C91	C	0.863099	0.759271	0.599199
	H92	H	0.877623	0.785915	0.601895
	C93	C	-0.006405	0.424030	0.085912
	C94	C	0.023979	0.432633	0.057126
	C95	C	0.026447	0.462767	0.027362
	C96	C	-0.001372	0.485773	0.024810
	C97	C	-0.031774	0.477014	0.053755
	C98	C	-0.034218	0.446939	0.083666
	C99	C	0.001330	0.518093	-0.007101
	C100	C	-0.028694	0.529327	-0.031700
	C101	C	-0.026108	0.559417	-0.061566
	C102	C	0.006594	0.579886	-0.068111
	C103	C	0.036650	0.568849	-0.043613
	C104	C	0.034060	0.538689	-0.013880
	H105	H	-0.049557	0.567470	-0.080452
	H106	H	-0.057898	0.440955	0.105744
	H107	H	0.062213	0.584246	-0.048034
	H108	H	0.045698	0.415178	0.058367
	H109	H	-0.054220	0.513730	-0.028197
	H110	H	-0.053414	0.494551	0.053444
	H111	H	0.049993	0.468204	0.004864
	H112	H	0.057603	0.531242	0.005289
	C113	C	-0.008912	0.392210	0.117751
	H114	H	-0.033466	0.387645	0.139499
	C115	C	0.009482	0.611672	-0.099999
	H116	H	0.036139	0.626116	-0.102968
	C117	C	0.009311	0.076686	0.077556
	C118	C	-0.010760	0.045315	0.092394
	C119	C	-0.011397	0.014028	0.065032
	C120	C	0.007943	0.012555	0.021406
	C121	C	0.028080	0.044071	0.006759
	C122	C	0.028825	0.075354	0.034185
	C123	C	0.007096	-0.020982	-0.007991
	C124	C	0.007407	-0.020057	-0.059030
	C125	C	0.006367	-0.051355	-0.086432
	C126	C	0.005167	-0.085135	-0.064161
	C127	C	0.004951	-0.086245	-0.013237
	C128	C	0.005871	-0.054934	0.014134
	H129	H	0.006371	-0.050029	-0.125763
	H130	H	0.044689	0.099193	0.022087
	H131	H	0.004085	-0.112021	0.004824
	H132	H	-0.026045	0.045897	0.125790
	H133	H	0.007607	0.005549	-0.077416
	H134	H	0.043917	0.043692	-0.026140
	H135	H	-0.027800	-0.009489	0.077038
	H136	H	0.006343	-0.056627	0.053398
	C137	C	0.010051	0.109843	0.106654
	H138	H	0.026474	0.133199	0.092464
	C139	C	0.003700	-0.118377	-0.093145
	H140	H	0.002863	-0.143664	-0.072726
	C141	C	0.498332	0.748293	0.249458
	C142	C	0.396884	0.743955	0.333328
	C143	C	0.509249	0.842963	0.151982
	C144	C	0.493654	0.646885	0.165392
	C145	C	0.593190	0.759482	0.346383
	C146	C	0.408127	0.774357	0.305886
	C147	C	0.502184	0.808383	0.133071
	C148	C	0.524214	0.658185	0.192423
	C149	C	0.558702	0.752309	0.365504
	C150	C	0.440044	0.776098	0.279439
	C151	C	0.498598	0.778380	0.163353
	C152	C	0.526041	0.690057	0.219004
	C153	C	0.528650	0.748616	0.335379
	C154	C	0.462237	0.747679	0.278821
	C155	C	0.502190	0.781286	0.213894
	C156	C	0.497496	0.712068	0.220341
	C157	C	0.531412	0.752183	0.284815
	C158	C	0.449907	0.716796	0.304734
	C159	C	0.510635	0.815934	0.232288
	C160	C	0.466548	0.699786	0.194604
	C161	C	0.565979	0.760665	0.266217
	C162	C	0.418075	0.714843	0.331270
	C163	C	0.514177	0.846062	0.202295
	C164	C	0.464512	0.667999	0.167935
	C165	C	0.596157	0.764318	0.296051
	H166	H	0.391406	0.796665	0.305145
	H167	H	0.499348	0.805300	0.094094
	H168	H	0.546602	0.641566	0.192696
	H169	H	0.555720	0.749535	0.404504
	H170	H	0.447276	0.799943	0.258361
	H171	H	0.493295	0.752298	0.146856
	H172	H	0.550028	0.697364	0.239701
	H173	H	0.502638	0.743276	0.352030
	H174	H	0.465790	0.693846	0.303981
	H175	H	0.514562	0.819136	0.271085
	H176	H	0.443591	0.715640	0.195662
	H177	H	0.569082	0.764547	0.227396
	H178	H	0.409256	0.690574	0.350805
	H179	H	0.521100	0.872345	0.217726
	H180	H	0.440169	0.659180	0.148622
	H181	H	0.622401	0.771225	0.280521
	N182	N	0.364518	0.741643	0.359434
	N183	N	0.513390	0.872907	0.121075
	N184	N	0.491256	0.614566	0.139141
	N185	N	0.623231	0.763846	0.377026
	C186	C	-0.002164	0.247774	0.250973
	C187	C	-0.006202	0.143971	0.172522
	C188	C	0.091111	0.262624	0.350343
	C189	C	-0.105906	0.243034	0.329533
	C190	C	0.012489	0.341088	0.151513
	C191	C	0.024456	0.156450	0.198561
	C192	C	0.056558	0.254123	0.368595
	C193	C	-0.093646	0.273782	0.303460
	C194	C	0.004272	0.306468	0.133270
	C195	C	0.026061	0.189050	0.223456
	C196	C	0.026960	0.249417	0.337751
	C197	C	-0.061074	0.275606	0.278514
	C198	C	-0.000415	0.276864	0.164160
	C199	C	-0.002402	0.211180	0.222795
	C200	C	0.030386	0.252236	0.287177
	C201	C	-0.038754	0.247289	0.279159
	C202	C	0.002133	0.280351	0.214749
	C203	C	-0.032940	0.198421	0.196529
	C204	C	0.065136	0.260835	0.269282
	C205	C	-0.051317	0.216646	0.305413
	C206	C	0.010376	0.315179	0.232631
	C207	C	-0.034798	0.165860	0.171648
	C208	C	0.094844	0.265591	0.299832
	C209	C	-0.083846	0.214569	0.330345
	C210	C	0.015099	0.344896	0.202035
	H211	H	0.046877	0.139899	0.199964
	H212	H	0.053097	0.251684	0.407565
	H213	H	-0.110337	0.296100	0.302076
	H214	H	0.002096	0.302952	0.094287
	H215	H	0.049899	0.196966	0.244156
	H216	H	0.000778	0.243787	0.353800
	H217	H	-0.053330	0.299502	0.257792
	H218	H	-0.005782	0.250626	0.148138
	H219	H	-0.055752	0.214482	0.195831
	H220	H	0.068766	0.263934	0.230417
	H221	H	-0.035121	0.193927	0.306075
	H222	H	0.013247	0.318856	0.271513
	H223	H	-0.058746	0.156811	0.151614
	H224	H	0.121251	0.272319	0.284706
	H225	H	-0.092728	0.190553	0.350392
	H226	H	0.021523	0.371383	0.217109
	N227	N	-0.007698	0.111740	0.146153
	N228	N	0.120897	0.266088	0.381525
	N229	N	-0.138079	0.241325	0.356027
	N230	N	0.016071	0.370900	0.120347
	C231	C	0.502220	0.416879	0.929355
	C232	C	0.507364	0.450826	0.907702
	C233	C	0.508839	0.481962	0.935468
	C234	C	0.505178	0.480720	0.986269
	C235	C	0.500055	0.446602	1.007783
	C236	C	0.498685	0.415438	0.980054
	C237	C	0.506745	0.514125	1.016011
	C238	C	0.485092	0.516896	1.057345
	C239	C	0.486454	0.548114	1.084945
	C240	C	0.509653	0.578067	1.072705
	C241	C	0.531333	0.575483	1.031498
	C242	C	0.529874	0.544288	1.003840
	H243	H	0.469363	0.549744	1.116523
	H244	H	0.494866	0.389517	0.997656
	H245	H	0.549502	0.598256	1.021316
	H246	H	0.510094	0.452424	0.868548
	H247	H	0.466358	0.494514	1.067285
	H248	H	0.497883	0.444609	1.046936
	H249	H	0.512102	0.507752	0.917451
	H250	H	0.547451	0.542875	0.972765
	C251	C	0.500859	0.383840	0.899955
	H252	H	0.497073	0.358363	0.919865
	C253	C	0.511017	0.611275	1.101746
	H254	H	0.529800	0.633491	1.089330
	C255	C	0.504853	1.081725	-0.068174
	C256	C	0.471752	1.063480	-0.056608
	C257	C	0.469560	1.033915	-0.025816
	C258	C	0.500362	1.021061	-0.005128
	C259	C	0.533473	1.039509	-0.016771
	C260	C	0.535685	1.069158	-0.047449
	C261	C	0.497974	0.989247	0.027699
	C262	C	0.524051	0.964255	0.026941
	C263	C	0.521650	0.934412	0.057251
	C264	C	0.493141	0.928165	0.090002
	C265	C	0.467062	0.953040	0.091011
	C266	C	0.469426	0.982815	0.060570
	H267	H	0.541936	0.915346	0.055832
	H268	H	0.561557	1.082919	-0.055634
	H269	H	0.444799	0.948829	0.116050
	H270	H	0.447662	1.072807	-0.072379
	H271	H	0.546049	0.967879	0.001399
	H272	H	0.557693	1.030804	-0.000660
	H273	H	0.443624	1.019993	-0.018497
	H274	H	0.449224	1.001897	0.062819
	C275	C	0.507169	1.113129	-0.100756
	H276	H	0.534112	1.126013	-0.107648
	C277	C	0.490346	0.896347	0.121834
	H278	H	0.467023	0.893447	0.146164
	C279	C	0.330088	0.255469	0.569102
	C280	C	0.311315	0.222459	0.558385
	C281	C	0.281486	0.220386	0.528115
	C282	C	0.268886	0.251221	0.507116
	C283	C	0.287868	0.284237	0.517910
	C284	C	0.317769	0.286329	0.548074
	C285	C	0.236825	0.248998	0.474785
	C286	C	0.212393	0.275613	0.475263
	C287	C	0.182410	0.273472	0.445269
	C288	C	0.175434	0.244680	0.413142
	C289	C	0.199695	0.218016	0.412496
	C290	C	0.229620	0.220130	0.442612
	H291	H	0.163819	0.294209	0.446424
	H292	H	0.331932	0.312132	0.555599
	H293	H	0.194907	0.195512	0.387957
	H294	H	0.320445	0.198348	0.574401
	H295	H	0.216582	0.297870	0.500313
	H296	H	0.279386	0.308472	0.501525
	H297	H	0.267175	0.194529	0.521456
	H298	H	0.248232	0.199475	0.440594
	C299	C	0.361769	0.257685	0.601130
	H300	H	0.374993	0.284580	0.607424
	C301	C	0.143582	0.242291	0.381429
	H302	H	0.140224	0.218847	0.357344
	C303	C	0.665754	0.253231	0.567825
	C304	C	0.699676	0.255449	0.589693
	C305	C	0.730795	0.256611	0.561939
	C306	C	0.729554	0.255538	0.510929
	C307	C	0.695464	0.253383	0.489205
	C308	C	0.664325	0.252330	0.516928
	C309	C	0.762921	0.256663	0.481171
	C310	C	0.764546	0.236812	0.437994
	C311	C	0.795700	0.237705	0.410344
	C312	C	0.826752	0.258617	0.424375
	C313	C	0.825320	0.278492	0.467427
	C314	C	0.794174	0.277497	0.495134
	H315	H	0.796416	0.222008	0.377318
	H316	H	0.638436	0.250812	0.499171
	H317	H	0.848957	0.294881	0.479015
	H318	H	0.701259	0.256131	0.628998
	H319	H	0.741273	0.219813	0.426590
	H320	H	0.693514	0.253286	0.449955
	H321	H	0.756525	0.257566	0.580053
	H322	H	0.793694	0.293675	0.527715
	C323	C	0.632735	0.252150	0.597220
	H324	H	0.607309	0.250723	0.577132
	C325	C	0.859872	0.259403	0.395224
	H326	H	0.882973	0.276464	0.408852
	C327	C	0.497705	0.248193	0.749297
	C328	C	0.483061	0.155075	0.849105
	C329	C	0.502686	0.352145	0.827452
	C330	C	0.403825	0.233519	0.650980
	C331	C	0.601121	0.251986	0.670040
	C332	C	0.491744	0.189684	0.867224
	C333	C	0.471942	0.339851	0.801541
	C334	C	0.438306	0.241836	0.632267
	C335	C	0.588783	0.221467	0.696455
	C336	C	0.496380	0.219228	0.836218
	C337	C	0.470024	0.307204	0.776746
	C338	C	0.468093	0.246465	0.662795
	C339	C	0.556288	0.219906	0.721554
	C340	C	0.493392	0.215700	0.785669
	C341	C	0.498315	0.284867	0.777335
	C342	C	0.464951	0.243838	0.713423
	C343	C	0.534142	0.248357	0.720813
	C344	C	0.484721	0.180899	0.767954
	C345	C	0.529011	0.297477	0.803390
	C346	C	0.430278	0.235517	0.731733
	C347	C	0.546777	0.278822	0.694235
	C348	C	0.479972	0.151255	0.798668
	C349	C	0.531152	0.330053	0.828253
	C350	C	0.400396	0.230776	0.701502
	C351	C	0.579205	0.280608	0.669066
	H352	H	0.494109	0.193341	0.906161
	H353	H	0.449607	0.356533	0.800508
	H354	H	0.441666	0.243922	0.593255
	H355	H	0.605319	0.199014	0.697618
	H356	H	0.502018	0.245474	0.852099
	H357	H	0.446045	0.299410	0.756273
	H358	H	0.494222	0.251813	0.646486
	H359	H	0.548471	0.196087	0.742399
	H360	H	0.481563	0.177155	0.729121
	H361	H	0.551713	0.281264	0.803911
	H362	H	0.426824	0.232637	0.770652
	H363	H	0.530716	0.301644	0.693585
	H364	H	0.473381	0.124723	0.783818
	H365	H	0.555300	0.338975	0.847927
	H366	H	0.373972	0.224467	0.716809
	H367	H	0.588152	0.304630	0.649085
	N368	N	0.479438	0.125025	0.879846
	N369	N	0.503987	0.384438	0.853681
	N370	N	0.373521	0.229943	0.620743
	N371	N	0.633313	0.252870	0.643666
