data_Molecule from CHK

_cell_length_a		39.844003
_cell_length_b		39.909824
_cell_length_c		23.776609
_cell_angle_alpha	90.348429
_cell_angle_beta	92.829705
_cell_angle_gamma	77.791298
_symmetry_space_group_name_H-M	'P 1'
_symmetry_Int_Tables_number		1

loop_
	_symmetry_equiv_pos_as_xyz
	x,y,z

loop_
	_atom_site_label
	_atom_site_type_symbol
	_atom_site_fract_x
	_atom_site_fract_y
	_atom_site_fract_z
	C0	C	0.023899	0.745754	0.752015
	C1	C	0.020365	0.659721	0.867342
	C2	C	0.022972	0.843163	0.843580
	C3	C	-0.068330	0.752048	0.636807
	C4	C	0.120179	0.727971	0.659784
	C5	C	-0.008153	0.686523	0.856471
	C6	C	0.028945	0.839842	0.786051
	C7	C	-0.045052	0.721020	0.648334
	C8	C	0.119654	0.735684	0.717370
	C9	C	-0.006379	0.713390	0.820231
	C10	C	0.029012	0.808992	0.758065
	C11	C	-0.016174	0.719689	0.684586
	C12	C	0.089074	0.741034	0.745524
	C13	C	0.023732	0.714992	0.793000
	C14	C	0.023372	0.779864	0.785824
	C15	C	-0.009024	0.749028	0.711370
	C16	C	0.057531	0.739142	0.717981
	C17	C	0.051733	0.687415	0.802603
	C18	C	0.018806	0.783054	0.843864
	C19	C	-0.033009	0.779787	0.700823
	C20	C	0.058201	0.732354	0.660064
	C21	C	0.050186	0.660429	0.838864
	C22	C	0.018656	0.813850	0.872179
	C23	C	-0.061975	0.781352	0.664541
	C24	C	0.088709	0.726916	0.631578
	H25	H	-0.031767	0.686060	0.876939
	H26	H	0.033444	0.861859	0.763440
	H27	H	-0.049854	0.697889	0.628336
	H28	H	0.143569	0.737128	0.740083
	H29	H	-0.028891	0.733723	0.812427
	H30	H	0.033652	0.807200	0.713491
	H31	H	0.001348	0.695287	0.692802
	H32	H	0.089435	0.746901	0.790107
	H33	H	0.075219	0.686593	0.781224
	H34	H	0.015854	0.761082	0.868009
	H35	H	-0.029428	0.803047	0.721540
	H36	H	0.034562	0.731662	0.636171
	H37	H	0.072361	0.639588	0.845693
	H38	H	0.015537	0.815251	0.917228
	H39	H	-0.079889	0.805597	0.657001
	H40	H	0.088437	0.721764	0.586748
	N41	N	0.018189	0.632070	0.902362
	N42	N	0.023706	0.874057	0.871874
	N43	N	-0.097984	0.753004	0.601731
	N44	N	0.150545	0.723890	0.630344
	C45	C	0.348446	0.737051	0.437159
	C46	C	0.320605	0.765099	0.430516
	C47	C	0.291001	0.767062	0.460142
	C48	C	0.287713	0.741047	0.497823
	C49	C	0.315706	0.712979	0.504308
	C50	C	0.345386	0.711045	0.474825
	C51	C	0.255936	0.743239	0.529560
	C52	C	0.242846	0.713977	0.540512
	C53	C	0.213059	0.716120	0.569763
	C54	C	0.194971	0.747610	0.589750
	C55	C	0.207931	0.776901	0.579046
	C56	C	0.237656	0.774746	0.549641
	H57	H	0.203285	0.693264	0.577437
	H58	H	0.366619	0.689192	0.480884
	H59	H	0.194447	0.801522	0.594149
	H60	H	0.322515	0.785398	0.401493
	H61	H	0.255810	0.689348	0.524707
	H62	H	0.314337	0.692797	0.533855
	H63	H	0.269717	0.788759	0.453116
	H64	H	0.247382	0.797727	0.542976
	C65	C	0.379938	0.735142	0.406017
	H66	H	0.400694	0.712487	0.414058
	C67	C	0.163222	0.750053	0.620369
	H68	H	0.150755	0.775769	0.634466
	C69	C	0.685502	0.759333	0.419070
	C70	C	0.690337	0.745333	0.473587
	C71	C	0.720170	0.745658	0.506393
	C72	C	0.746702	0.759933	0.486293
	C73	C	0.741613	0.774129	0.431731
	C74	C	0.711739	0.773897	0.398934
	C75	C	0.778877	0.759839	0.521252
	C76	C	0.811019	0.755023	0.496953
	C77	C	0.841104	0.754459	0.529595
	C78	C	0.840538	0.758831	0.588156
	C79	C	0.808537	0.763757	0.612658
	C80	C	0.778471	0.764225	0.579988
	H81	H	0.865645	0.750446	0.510011
	H82	H	0.708512	0.785063	0.357068
	H83	H	0.807421	0.767254	0.657815
	H84	H	0.670325	0.733942	0.489780
	H85	H	0.812495	0.750827	0.451993
	H86	H	0.761175	0.786055	0.415368
	H87	H	0.723384	0.733897	0.547806
	H88	H	0.754078	0.768695	0.600013
	C89	C	0.653999	0.758691	0.384078
	H90	H	0.652315	0.770103	0.341800
	C91	C	0.872474	0.757769	0.622936
	H92	H	0.869694	0.761241	0.668497
	C93	C	-0.001857	0.428306	0.083263
	C94	C	-0.021893	0.436444	0.033071
	C95	C	-0.019408	0.464604	0.000523
	C96	C	0.003182	0.486071	0.016594
	C97	C	0.023219	0.477767	0.066951
	C98	C	0.020832	0.449549	0.099442
	C99	C	0.005859	0.516270	-0.018285
	C100	C	0.011203	0.546903	0.006577
	C101	C	0.013696	0.575073	-0.025931
	C102	C	0.011141	0.573962	-0.084944
	C103	C	0.005809	0.543471	-0.110032
	C104	C	0.003215	0.515344	-0.077474
	H105	H	0.017628	0.598510	-0.005861
	H106	H	0.036710	0.443697	0.137914
	H107	H	0.003790	0.541970	-0.155562
	H108	H	-0.039599	0.420316	0.020011
	H109	H	0.012637	0.548874	0.052069
	H110	H	0.041433	0.493323	0.080020
	H111	H	-0.035771	0.470549	-0.037414
	H112	H	-0.000226	0.491929	-0.098097
	C113	C	-0.004235	0.398300	0.117623
	H114	H	0.012666	0.393644	0.155989
	C115	C	0.013612	0.603875	-0.119464
	H116	H	0.011387	0.600792	-0.165387
	C117	C	-0.006295	0.079617	0.078534
	C118	C	-0.034848	0.074889	0.044904
	C119	C	-0.034317	0.044630	0.015243
	C120	C	-0.005180	0.017619	0.017625
	C121	C	0.023386	0.022518	0.051366
	C122	C	0.022836	0.052728	0.081211
	C123	C	-0.004658	-0.014879	-0.014002
	C124	C	0.025230	-0.032651	-0.038875
	C125	C	0.025724	-0.063022	-0.068205
	C126	C	-0.003596	-0.077233	-0.073857
	C127	C	-0.033523	-0.059599	-0.049204
	C128	C	-0.034027	-0.029160	-0.020058
	H129	H	0.049015	-0.076232	-0.087272
	H130	H	0.045158	0.055705	0.107126
	H131	H	-0.056502	-0.070078	-0.052945
	H132	H	-0.057553	0.095445	0.042300
	H133	H	0.048157	-0.022066	-0.036145
	H134	H	0.046022	0.001957	0.055098
	H135	H	-0.056578	0.042096	-0.011191
	H136	H	-0.057325	-0.016494	-0.000507
	C137	C	-0.006999	0.111547	0.110528
	H138	H	0.016329	0.113026	0.136258
	C139	C	-0.003111	-0.109496	-0.104781
	H140	H	-0.027149	-0.118918	-0.106705
	C141	C	0.509599	0.744732	0.250749
	C142	C	0.413739	0.755898	0.343001
	C143	C	0.505450	0.831654	0.133263
	C144	C	0.519194	0.645774	0.160409
	C145	C	0.600476	0.745094	0.366267
	C146	C	0.414900	0.747759	0.285638
	C147	C	0.535844	0.807274	0.145105
	C148	C	0.512641	0.648813	0.217762
	C149	C	0.575407	0.774905	0.354525
	C150	C	0.445344	0.744369	0.257500
	C151	C	0.536559	0.780144	0.182218
	C152	C	0.509639	0.680215	0.245279
	C153	C	0.547014	0.774186	0.318078
	C154	C	0.476114	0.748909	0.284835
	C155	C	0.507248	0.775939	0.209528
	C156	C	0.512885	0.710155	0.217250
	C157	C	0.542163	0.743966	0.291351
	C158	C	0.474999	0.755667	0.342742
	C159	C	0.477303	0.801167	0.198885
	C160	C	0.518237	0.707082	0.159425
	C161	C	0.567993	0.714572	0.301946
	C162	C	0.444626	0.759125	0.371231
	C163	C	0.476355	0.828376	0.161764
	C164	C	0.521289	0.675745	0.131562
	C165	C	0.596451	0.715053	0.338424
	H166	H	0.391530	0.744240	0.263270
	H167	H	0.558868	0.809612	0.124362
	H168	H	0.510084	0.626142	0.240632
	H169	H	0.578169	0.798621	0.374848
	H170	H	0.445477	0.738001	0.213111
	H171	H	0.560379	0.761539	0.190392
	H172	H	0.504554	0.681791	0.289696
	H173	H	0.527906	0.797574	0.309951
	H174	H	0.498181	0.758103	0.366544
	H175	H	0.454211	0.800028	0.220166
	H176	H	0.519781	0.729474	0.135152
	H177	H	0.566351	0.690783	0.281112
	H178	H	0.444575	0.764715	0.415908
	H179	H	0.452778	0.847434	0.154262
	H180	H	0.525706	0.674211	0.086902
	H181	H	0.615992	0.691893	0.345850
	N182	N	0.383207	0.758576	0.371466
	N183	N	0.504624	0.859651	0.097232
	N184	N	0.521442	0.614287	0.132499
	N185	N	0.629777	0.745481	0.401506
	C186	C	-0.028580	0.258923	0.242077
	C187	C	-0.032690	0.166264	0.140134
	C188	C	0.066510	0.248673	0.351568
	C189	C	-0.122785	0.270593	0.338681
	C190	C	-0.025614	0.350032	0.137972
	C191	C	-0.035440	0.166659	0.198692
	C192	C	0.042315	0.279700	0.345902
	C193	C	-0.123549	0.267208	0.279997
	C194	C	0.002335	0.322041	0.143375
	C195	C	-0.034017	0.196100	0.229867
	C196	C	0.012603	0.282256	0.311202
	C197	C	-0.093588	0.263619	0.250495
	C198	C	0.000764	0.293677	0.176368
	C199	C	-0.028932	0.226286	0.204781
	C200	C	0.004994	0.254033	0.281521
	C201	C	-0.061573	0.264138	0.277563
	C202	C	-0.028837	0.291264	0.204438
	C203	C	-0.026241	0.225615	0.146176
	C204	C	0.029287	0.223086	0.287703
	C205	C	-0.061134	0.267824	0.336279
	C206	C	-0.056700	0.319309	0.198507
	C207	C	-0.027715	0.196273	0.114622
	C208	C	0.059110	0.220303	0.322366
	C209	C	-0.091000	0.271353	0.366152
	C210	C	-0.055332	0.347820	0.165580
	H211	H	-0.039526	0.143838	0.219417
	H212	H	0.047085	0.301926	0.368810
	H213	H	-0.147911	0.266903	0.257800
	H214	H	0.025439	0.322744	0.121590
	H215	H	-0.037095	0.195961	0.274908
	H216	H	-0.005384	0.306720	0.306821
	H217	H	-0.094841	0.260238	0.205215
	H218	H	0.022968	0.272653	0.180642
	H219	H	-0.023486	0.248438	0.124189
	H220	H	0.025289	0.200681	0.264766
	H221	H	-0.037103	0.267577	0.359622
	H222	H	-0.079897	0.319330	0.220269
	H223	H	-0.025505	0.196494	0.069363
	H224	H	0.077295	0.195966	0.326780
	H225	H	-0.089851	0.274627	0.411453
	H226	H	-0.077396	0.369004	0.161345
	N227	N	-0.033186	0.136489	0.108497
	N228	N	0.096216	0.245607	0.387293
	N229	N	-0.153112	0.274591	0.368196
	N230	N	-0.024685	0.378481	0.103933
	C231	C	0.504990	0.418779	0.917732
	C232	C	0.474069	0.437263	0.938160
	C233	C	0.472736	0.467856	0.967227
	C234	C	0.502269	0.481450	0.977440
	C235	C	0.533200	0.462795	0.956869
	C236	C	0.534537	0.432260	0.927625
	C237	C	0.500877	0.514280	1.008504
	C238	C	0.528039	0.519049	1.045647
	C239	C	0.526794	0.549680	1.074546
	C240	C	0.498387	0.577135	1.067571
	C241	C	0.471150	0.572517	1.030681
	C242	C	0.472369	0.541823	1.001937
	H243	H	0.547977	0.552743	1.103170
	H244	H	0.558708	0.418536	0.912036
	H245	H	0.448924	0.593361	1.024562
	H246	H	0.451006	0.427163	0.930977
	H247	H	0.550098	0.498150	1.052823
	H248	H	0.556325	0.472874	0.962958
	H249	H	0.448565	0.481127	0.983398
	H250	H	0.451236	0.539269	0.972886
	C251	C	0.506423	0.386489	0.886459
	H252	H	0.531639	0.373899	0.871463
	C253	C	0.497097	0.609649	1.098148
	H254	H	0.473911	0.629848	1.090245
	C255	C	0.506039	1.066022	-0.091981
	C256	C	0.498530	1.069036	-0.034915
	C257	C	0.500115	1.040184	-0.001490
	C258	C	0.509242	1.006870	-0.023462
	C259	C	0.516878	1.004015	-0.080660
	C260	C	0.515375	1.032853	-0.114095
	C261	C	0.510713	0.975931	0.012283
	C262	C	0.500757	0.946489	-0.009620
	C263	C	0.501848	0.917725	0.023770
	C264	C	0.513073	0.916904	0.080703
	C265	C	0.523087	0.946178	0.102821
	C266	C	0.521913	0.974966	0.069415
	H267	H	0.493816	0.895393	0.006085
	H268	H	0.521502	1.029848	-0.157992
	H269	H	0.531901	0.946155	0.146680
	H270	H	0.491247	1.094489	-0.017166
	H271	H	0.491253	0.946496	-0.053114
	H272	H	0.524766	0.978743	-0.098722
	H273	H	0.493404	1.043484	0.042105
	H274	H	0.530432	0.996932	0.087451
	C275	C	0.504363	1.096578	-0.127535
	H276	H	0.510607	1.091790	-0.171782
	C277	C	0.513845	0.886562	0.116316
	H278	H	0.522498	0.888246	0.160669
	C279	C	0.305713	0.251616	0.585481
	C280	C	0.306824	0.250136	0.526619
	C281	C	0.277157	0.251237	0.492623
	C282	C	0.244911	0.253794	0.515790
	C283	C	0.243967	0.255189	0.574841
	C284	C	0.273607	0.254216	0.608872
	C285	C	0.213059	0.255229	0.479337
	C286	C	0.186789	0.239141	0.495297
	C287	C	0.157037	0.240615	0.461341
	C288	C	0.152007	0.258391	0.409856
	C289	C	0.178174	0.274410	0.393598
	C290	C	0.207970	0.272815	0.427488
	H291	H	0.137155	0.227912	0.474362
	H292	H	0.272064	0.255552	0.654239
	H293	H	0.174893	0.288311	0.354006
	H294	H	0.331446	0.248054	0.507867
	H295	H	0.190121	0.224694	0.534350
	H296	H	0.219449	0.257853	0.594086
	H297	H	0.279037	0.249386	0.447355
	H298	H	0.227409	0.286033	0.414340
	C299	C	0.337077	0.250911	0.621573
	H300	H	0.333787	0.252720	0.667204
	C301	C	0.120425	0.260158	0.373859
	H302	H	0.118534	0.274900	0.334494
	C303	C	0.657713	0.262434	0.584419
	C304	C	0.674638	0.231605	0.560586
	C305	C	0.704395	0.229828	0.531435
	C306	C	0.718684	0.258804	0.524540
	C307	C	0.701636	0.289636	0.548602
	C308	C	0.671927	0.291414	0.577938
	C309	C	0.750532	0.256853	0.493087
	C310	C	0.754894	0.284020	0.458707
	C311	C	0.784469	0.282025	0.428956
	C312	C	0.811226	0.252829	0.432327
	C313	C	0.807075	0.225665	0.466685
	C314	C	0.777445	0.227640	0.496273
	H315	H	0.787200	0.303174	0.402354
	H316	H	0.659419	0.315493	0.596215
	H317	H	0.827419	0.202856	0.470067
	H318	H	0.663967	0.208973	0.565121
	H319	H	0.734428	0.306670	0.454257
	H320	H	0.712335	0.312304	0.545110
	H321	H	0.716392	0.205769	0.512539
	H322	H	0.775269	0.206499	0.523273
	C323	C	0.626198	0.264284	0.615469
	H324	H	0.614711	0.289360	0.633166
	C325	C	0.842452	0.250433	0.400342
	H326	H	0.862027	0.226550	0.405383
	C327	C	0.489050	0.247040	0.748102
	C328	C	0.494879	0.155433	0.856075
	C329	C	0.482774	0.342880	0.846331
	C330	C	0.395625	0.248408	0.637737
	C331	C	0.582733	0.241163	0.651767
	C332	C	0.464615	0.180544	0.848265
	C333	C	0.487330	0.341759	0.788209
	C334	C	0.421628	0.218876	0.645147
	C335	C	0.582710	0.246836	0.710020
	C336	C	0.463351	0.209117	0.814065
	C337	C	0.489302	0.311295	0.758235
	C338	C	0.450742	0.218999	0.680206
	C339	C	0.552903	0.248695	0.739384
	C340	C	0.492274	0.214668	0.787068
	C341	C	0.486052	0.280667	0.784090
	C342	C	0.455938	0.248637	0.708427
	C343	C	0.521909	0.244190	0.712778
	C344	C	0.522518	0.189519	0.795487
	C345	C	0.481367	0.282118	0.842187
	C346	C	0.429810	0.278094	0.700546
	C347	C	0.522250	0.238466	0.654545
	C348	C	0.523997	0.160819	0.829609
	C349	C	0.479366	0.312511	0.872514
	C350	C	0.400544	0.278170	0.665650
	C351	C	0.551968	0.236578	0.624827
	H352	H	0.441880	0.177127	0.868836
	H353	H	0.489435	0.365033	0.766681
	H354	H	0.418532	0.195646	0.623537
	H355	H	0.606309	0.249865	0.732177
	H356	H	0.439361	0.227760	0.807947
	H357	H	0.493358	0.311046	0.713465
	H358	H	0.470127	0.195573	0.686009
	H359	H	0.553478	0.253649	0.784270
	H360	H	0.545443	0.191958	0.774800
	H361	H	0.479529	0.259185	0.864730
	H362	H	0.431927	0.301490	0.722251
	H363	H	0.498959	0.235713	0.631386
	H364	H	0.548019	0.142254	0.835957
	H365	H	0.475389	0.312935	0.917321
	H366	H	0.381086	0.301538	0.659795
	H367	H	0.551541	0.231769	0.579890
	N368	N	0.496059	0.127110	0.891559
	N369	N	0.479912	0.373578	0.876814
	N370	N	0.366681	0.248504	0.601372
	N371	N	0.612721	0.238224	0.621725
