data_Molecule from CHK

_cell_length_a		32.381914
_cell_length_b		32.450852
_cell_length_c		7.370201
_cell_angle_alpha	89.852746
_cell_angle_beta	90.162979
_cell_angle_gamma	92.368643
_symmetry_space_group_name_H-M	'P 1'
_symmetry_Int_Tables_number		1

loop_
	_symmetry_equiv_pos_as_xyz
	x,y,z

loop_
	_atom_site_label
	_atom_site_type_symbol
	_atom_site_fract_x
	_atom_site_fract_y
	_atom_site_fract_z
	C0	C	-0.001251	0.752616	0.375189
	C1	C	-0.012328	0.644608	0.746416
	C2	C	0.004952	0.863275	0.728244
	C3	C	-0.111038	0.751511	0.010137
	C4	C	0.108854	0.751048	0.018951
	C5	C	0.003350	0.683218	0.804828
	C6	C	-0.032582	0.848982	0.651229
	C7	C	-0.071305	0.763400	-0.050542
	C8	C	0.092296	0.714558	0.096957
	C9	C	0.007869	0.716568	0.686346
	C10	C	-0.034464	0.814808	0.536185
	C11	C	-0.037294	0.764563	0.065684
	C12	C	0.058277	0.715001	0.213085
	C13	C	-0.004223	0.713887	0.504181
	C14	C	0.000683	0.792977	0.493765
	C15	C	-0.040325	0.752315	0.247425
	C16	C	0.038899	0.751584	0.255626
	C17	C	-0.020405	0.675208	0.446513
	C18	C	0.038244	0.808237	0.568414
	C19	C	-0.080011	0.739400	0.306877
	C20	C	0.056445	0.788021	0.179984
	C21	C	-0.024461	0.641402	0.564270
	C22	C	0.040513	0.842800	0.680578
	C23	C	-0.114421	0.738808	0.191503
	C24	C	0.090841	0.787928	0.066770
	H25	H	0.010996	0.687455	0.946646
	H26	H	-0.060383	0.864969	0.683114
	H27	H	-0.066433	0.770696	-0.192262
	H28	H	0.106335	0.685724	0.064933
	H29	H	0.020403	0.745350	0.740223
	H30	H	-0.064015	0.804899	0.479360
	H31	H	-0.007722	0.774478	0.010091
	H32	H	0.046484	0.686166	0.270367
	H33	H	-0.030375	0.671596	0.306669
	H34	H	0.066338	0.792464	0.539646
	H35	H	-0.083995	0.729246	0.446242
	H36	H	0.042625	0.817137	0.208770
	H37	H	-0.037539	0.612114	0.516184
	H38	H	0.070036	0.854108	0.734347
	H39	H	-0.144459	0.727934	0.240948
	H40	H	0.103955	0.816627	0.012270
	N41	N	-0.018467	0.612138	0.871823
	N42	N	0.007414	0.897912	0.842826
	N43	N	-0.144917	0.748988	-0.110348
	N44	N	0.143379	0.751474	-0.096415
	C45	C	0.329931	0.754893	-0.082203
	C46	C	0.299452	0.722930	-0.084566
	C47	C	0.270108	0.718886	0.052476
	C48	C	0.269454	0.746741	0.198396
	C49	C	0.300219	0.778662	0.199923
	C50	C	0.329797	0.782585	0.063531
	C51	C	0.236964	0.743169	0.341914
	C52	C	0.243888	0.757329	0.520224
	C53	C	0.212802	0.755219	0.650675
	C54	C	0.173238	0.738575	0.609438
	C55	C	0.166428	0.723539	0.433447
	C56	C	0.197390	0.725885	0.303116
	H57	H	0.218811	0.766748	0.786604
	H58	H	0.353092	0.807500	0.068281
	H59	H	0.136165	0.710382	0.399331
	H60	H	0.299220	0.701008	-0.195457
	H61	H	0.274295	0.769621	0.558135
	H62	H	0.300454	0.801152	0.308232
	H63	H	0.247719	0.693184	0.047369
	H64	H	0.190314	0.715343	0.166834
	C65	C	0.361141	0.758983	-0.227206
	H66	H	0.386580	0.781909	-0.204973
	C67	C	0.139246	0.737389	0.742243
	H68	H	0.109264	0.724478	0.693865
	C69	C	0.680091	0.743188	-0.136521
	C70	C	0.697898	0.782297	-0.097716
	C71	C	0.724579	0.788415	0.049105
	C72	C	0.734892	0.755763	0.164501
	C73	C	0.717421	0.716493	0.122664
	C74	C	0.690610	0.710349	-0.023532
	C75	C	0.763418	0.762117	0.322676
	C76	C	0.760034	0.737371	0.479583
	C77	C	0.787832	0.742023	0.623322
	C78	C	0.820155	0.772068	0.618267
	C79	C	0.822896	0.797817	0.464982
	C80	C	0.795347	0.792839	0.320756
	H81	H	0.784822	0.722365	0.742200
	H82	H	0.677461	0.679753	-0.051096
	H83	H	0.847669	0.821230	0.457104
	H84	H	0.690070	0.808029	-0.183659
	H85	H	0.734858	0.714480	0.490322
	H86	H	0.725567	0.690258	0.204530
	H87	H	0.736767	0.819319	0.077364
	H88	H	0.799605	0.812090	0.201428
	C89	C	0.649865	0.736881	-0.284947
	H90	H	0.635715	0.705609	-0.296777
	C91	C	0.851744	0.775625	0.762551
	H92	H	0.873544	0.802353	0.750506
	C93	C	-0.019508	0.430648	0.876719
	C94	C	0.009205	0.464098	0.885057
	C95	C	0.012977	0.492419	0.743135
	C96	C	-0.011329	0.488443	0.584923
	C97	C	-0.040758	0.455358	0.579783
	C98	C	-0.044888	0.427299	0.722195
	C99	C	-0.005778	0.517416	0.428112
	C100	C	-0.038745	0.526661	0.312098
	C101	C	-0.033344	0.553535	0.165750
	C102	C	0.005320	0.572630	0.128140
	C103	C	0.038442	0.563342	0.242283
	C104	C	0.033015	0.536358	0.388096
	H105	H	-0.059296	0.560441	0.079043
	H106	H	-0.067237	0.401630	0.711745
	H107	H	0.068699	0.577555	0.215832
	H108	H	0.028547	0.467545	1.004903
	H109	H	-0.069345	0.513396	0.339322
	H110	H	-0.059574	0.450638	0.459263
	H111	H	0.034835	0.518419	0.756196
	H112	H	0.059478	0.529178	0.470862
	C113	C	-0.021963	0.398417	1.018138
	H114	H	-0.048141	0.375986	1.004169
	C115	C	0.010891	0.602695	-0.021068
	H116	H	0.041850	0.617690	-0.032661
	C117	C	0.011835	0.084640	0.830091
	C118	C	-0.019784	0.053807	0.832247
	C119	C	-0.023659	0.024749	0.694294
	C120	C	0.004093	0.024633	0.547662
	C121	C	0.035561	0.055868	0.545882
	C122	C	0.039269	0.085237	0.683126
	C123	C	0.000688	-0.007842	0.404177
	C124	C	0.015088	-0.001216	0.226008
	C125	C	0.012726	-0.032317	0.095790
	C126	C	-0.004390	-0.071608	0.137209
	C127	C	-0.019383	-0.078196	0.313386
	C128	C	-0.016744	-0.047263	0.443425
	H129	H	0.024306	-0.026508	-0.040213
	H130	H	0.063853	0.108882	0.678195
	H131	H	-0.032810	-0.108273	0.347764
	H132	H	-0.041599	0.053047	0.943749
	H133	H	0.027699	0.028987	0.187792
	H134	H	0.057880	0.056673	0.436692
	H135	H	-0.049184	0.002146	0.699566
	H136	H	-0.027282	-0.054266	0.579749
	C137	C	0.015712	0.115321	0.977187
	H138	H	0.037762	0.141483	0.954866
	C139	C	-0.006577	-0.105565	0.004640
	H140	H	-0.020493	-0.135047	0.053408
	C141	C	0.496894	0.746597	0.121667
	C142	C	0.390444	0.740026	0.498432
	C143	C	0.500671	0.854681	-0.249961
	C144	C	0.497767	0.636163	-0.231131
	C145	C	0.606710	0.759054	0.484709
	C146	C	0.401672	0.777031	0.409113
	C147	C	0.487323	0.815275	-0.308222
	C148	C	0.534625	0.653435	-0.158723
	C149	C	0.568422	0.743073	0.546351
	C150	C	0.434237	0.779075	0.284845
	C151	C	0.484838	0.781804	-0.189500
	C152	C	0.534429	0.687586	-0.043704
	C153	C	0.534551	0.738166	0.430551
	C154	C	0.457166	0.744567	0.244366
	C155	C	0.496802	0.785281	-0.007375
	C156	C	0.497735	0.706337	0.003463
	C157	C	0.536284	0.750120	0.248019
	C158	C	0.443650	0.707136	0.324911
	C159	C	0.509937	0.824922	0.050895
	C160	C	0.460965	0.688066	-0.066362
	C161	C	0.574751	0.766289	0.186863
	C162	C	0.410934	0.704769	0.447252
	C163	C	0.512056	0.858750	-0.067168
	C164	C	0.460843	0.653467	-0.178052
	C165	C	0.609084	0.770833	0.301951
	H166	H	0.384895	0.804361	0.439395
	H167	H	0.480054	0.810530	-0.450137
	H168	H	0.563532	0.639810	-0.193796
	H169	H	0.564830	0.735403	0.688508
	H170	H	0.442220	0.808228	0.219961
	H171	H	0.474079	0.752306	-0.242823
	H172	H	0.563511	0.699833	0.009905
	H173	H	0.506154	0.725394	0.487502
	H174	H	0.459698	0.679344	0.294486
	H175	H	0.519384	0.829209	0.191079
	H176	H	0.431761	0.701481	-0.034333
	H177	H	0.577749	0.776043	0.046523
	H178	H	0.401262	0.675431	0.507274
	H179	H	0.523251	0.888732	-0.019049
	H180	H	0.431904	0.639655	-0.227274
	H181	H	0.638133	0.784033	0.251240
	N182	N	0.359050	0.736838	0.629335
	N183	N	0.505842	0.887259	-0.375124
	N184	N	0.497097	0.601678	-0.346467
	N185	N	0.639546	0.765884	0.608107
	C186	C	-0.000671	0.250759	0.623187
	C187	C	-0.003825	0.142609	0.255855
	C188	C	0.109628	0.258406	0.984991
	C189	C	-0.109254	0.243895	0.989064
	C190	C	0.003503	0.360985	0.262283
	C191	C	0.033479	0.157240	0.334291
	C192	C	0.070574	0.244618	1.047267
	C193	C	-0.095750	0.281559	0.911068
	C194	C	-0.009419	0.321739	0.200007
	C195	C	0.034500	0.190216	0.456096
	C196	C	0.036427	0.241534	0.932163
	C197	C	-0.062623	0.283713	0.789793
	C198	C	-0.011443	0.287595	0.314881
	C199	C	-0.001141	0.211070	0.500744
	C200	C	0.038751	0.252639	0.748841
	C201	C	-0.040517	0.248912	0.745207
	C202	C	-0.000093	0.290141	0.497925
	C203	C	-0.038419	0.195353	0.425488
	C204	C	0.077876	0.266660	0.686802
	C205	C	-0.055089	0.211239	0.820056
	C206	C	0.012906	0.329495	0.560114
	C207	C	-0.039809	0.161940	0.307147
	C208	C	0.112513	0.269060	0.800948
	C209	C	-0.088644	0.208709	0.937897
	C210	C	0.014262	0.364103	0.446199
	H211	H	0.061684	0.142221	0.300265
	H212	H	0.066078	0.237830	1.189737
	H213	H	-0.111759	0.309151	0.945025
	H214	H	-0.016327	0.317143	0.057674
	H215	H	0.063727	0.200169	0.515774
	H216	H	0.007346	0.230655	0.989650
	H217	H	-0.053549	0.313182	0.730549
	H218	H	-0.021661	0.258352	0.257384
	H219	H	-0.066970	0.209996	0.457726
	H220	H	0.081122	0.276257	0.546366
	H221	H	-0.039423	0.183306	0.787877
	H222	H	0.022538	0.332962	0.700448
	H223	H	-0.069114	0.150412	0.252193
	H224	H	0.142217	0.280238	0.748881
	H225	H	-0.099279	0.179129	0.992543
	H226	H	0.024705	0.393990	0.498320
	N227	N	-0.006087	0.112051	0.121421
	N228	N	0.144211	0.260443	1.101810
	N229	N	-0.139886	0.240680	1.123339
	N230	N	0.004732	0.395476	0.145508
	C231	C	0.492065	0.416166	0.664716
	C232	C	0.524232	0.446444	0.663062
	C233	C	0.528453	0.475538	0.800791
	C234	C	0.500613	0.476115	0.946939
	C235	C	0.468696	0.445334	0.948611
	C236	C	0.464607	0.415976	0.811522
	C237	C	0.504384	0.508471	1.090742
	C238	C	0.490241	0.501601	1.269091
	C239	C	0.492655	0.532571	1.399767
	C240	C	0.509643	0.571942	1.358818
	C241	C	0.524312	0.578825	1.182250
	C242	C	0.521705	0.547957	1.051803
	H243	H	0.481150	0.526613	1.535777
	H244	H	0.439683	0.392687	0.816322
	H245	H	0.537436	0.609034	1.147717
	H246	H	0.546132	0.446798	0.551915
	H247	H	0.477728	0.471334	1.306893
	H248	H	0.446323	0.444929	1.057565
	H249	H	0.554261	0.497826	0.795915
	H250	H	0.532087	0.555052	0.915314
	C251	C	0.487920	0.385259	0.518623
	H252	H	0.465288	0.359581	0.540699
	C253	C	0.510992	0.605824	1.491822
	H254	H	0.523916	0.635734	1.443338
	C255	C	0.512829	1.068059	-0.380895
	C256	C	0.483526	1.035158	-0.391797
	C257	C	0.478631	1.006771	-0.250547
	C258	C	0.502206	1.010221	-0.090024
	C259	C	0.531973	1.042982	-0.081691
	C260	C	0.537310	1.071021	-0.223551
	C261	C	0.495653	0.981138	0.065957
	C262	C	0.527769	0.972480	0.187542
	C263	C	0.521619	0.945534	0.333082
	C264	C	0.483004	0.925729	0.364613
	C265	C	0.450752	0.934225	0.244439
	C266	C	0.456907	0.961375	0.099552
	H267	H	0.546995	0.939138	0.423926
	H268	H	0.559965	1.096366	-0.210502
	H269	H	0.420589	0.919328	0.265683
	H270	H	0.464722	1.032098	-0.513427
	H271	H	0.558399	0.986216	0.165591
	H272	H	0.550169	1.047545	0.040718
	H273	H	0.456467	0.981114	-0.266292
	H274	H	0.431023	0.967945	0.012247
	C275	C	0.516536	1.100428	-0.521439
	H276	H	0.543149	1.122241	-0.504907
	C277	C	0.477099	0.895291	0.512320
	H278	H	0.446735	0.878906	0.517681
	C279	C	0.322151	0.261753	1.120174
	C280	C	0.302595	0.223357	1.082716
	C281	C	0.275614	0.218193	0.936471
	C282	C	0.266722	0.251127	0.820049
	C283	C	0.286218	0.289638	0.859542
	C284	C	0.313372	0.294818	1.005244
	C285	C	0.237661	0.245599	0.663205
	C286	C	0.241438	0.269883	0.505026
	C287	C	0.213125	0.265828	0.362842
	C288	C	0.179959	0.236754	0.370590
	C289	C	0.176627	0.211644	0.525742
	C290	C	0.204624	0.216094	0.668447
	H291	H	0.216429	0.285134	0.242972
	H292	H	0.328070	0.324830	1.031197
	H293	H	0.151047	0.189181	0.536317
	H294	H	0.309229	0.197382	1.169453
	H295	H	0.267289	0.291935	0.492014
	H296	H	0.279403	0.316071	0.776266
	H297	H	0.262059	0.187748	0.909587
	H298	H	0.199865	0.197419	0.789215
	C299	C	0.352750	0.266640	1.268097
	H300	H	0.368785	0.297062	1.278615
	C301	C	0.147654	0.233899	0.229233
	H302	H	0.125620	0.207401	0.243081
	C303	C	0.677418	0.240094	1.114653
	C304	C	0.716605	0.258063	1.152699
	C305	C	0.747330	0.260593	1.020707
	C306	C	0.740401	0.245609	0.843720
	C307	C	0.701109	0.227295	0.807764
	C308	C	0.670482	0.224549	0.939583
	C309	C	0.772507	0.249506	0.698540
	C310	C	0.773107	0.221586	0.552844
	C311	C	0.801990	0.225919	0.414069
	C312	C	0.832064	0.258261	0.414261
	C313	C	0.832251	0.285803	0.560584
	C314	C	0.803068	0.281632	0.698540
	H315	H	0.801642	0.203971	0.303256
	H316	H	0.640430	0.210591	0.907361
	H317	H	0.855381	0.310875	0.564330
	H318	H	0.722644	0.270186	1.287619
	H319	H	0.751023	0.195618	0.548998
	H320	H	0.693960	0.216170	0.672467
	H321	H	0.777474	0.273854	1.056646
	H322	H	0.803471	0.304118	0.806865
	C323	C	0.643873	0.238414	1.249643
	H324	H	0.614096	0.224468	1.204081
	C325	C	0.862814	0.262552	0.267426
	H326	H	0.888345	0.285408	0.288882
	C327	C	0.501985	0.249289	0.872883
	C328	C	0.394291	0.241244	0.498923
	C329	C	0.614409	0.251656	0.529236
	C330	C	0.492897	0.138970	1.234016
	C331	C	0.507333	0.357158	1.241457
	C332	C	0.433076	0.257118	0.442737
	C333	C	0.597065	0.214330	0.595980
	C334	C	0.507196	0.177751	1.296735
	C335	C	0.470024	0.344173	1.158063
	C336	C	0.466407	0.260789	0.562225
	C337	C	0.562404	0.213567	0.708514
	C338	C	0.510675	0.211876	1.182024
	C339	C	0.468330	0.311232	1.035992
	C340	C	0.463179	0.248574	0.744075
	C341	C	0.542374	0.249566	0.754268
	C342	C	0.499596	0.209837	0.998543
	C343	C	0.503294	0.288919	0.995542
	C344	C	0.423802	0.234200	0.801638
	C345	C	0.559816	0.286703	0.685000
	C346	C	0.485166	0.170941	0.936070
	C347	C	0.540617	0.302895	1.076337
	C348	C	0.390073	0.230901	0.682802
	C349	C	0.594990	0.287831	0.576194
	C350	C	0.482246	0.136350	1.049871
	C351	C	0.542670	0.336071	1.195896
	H352	H	0.437648	0.264910	0.301251
	H353	H	0.611517	0.185887	0.560985
	H354	H	0.514068	0.182103	1.439243
	H355	H	0.442317	0.360368	1.188810
	H356	H	0.495597	0.272822	0.509828
	H357	H	0.550692	0.184250	0.760791
	H358	H	0.521768	0.240709	1.240542
	H359	H	0.439089	0.302372	0.973215
	H360	H	0.419669	0.224797	0.941921
	H361	H	0.545352	0.315407	0.715573
	H362	H	0.475610	0.167775	0.795510
	H363	H	0.568624	0.286988	1.047556
	H364	H	0.360190	0.219247	0.730832
	H365	H	0.607926	0.317031	0.526259
	H366	H	0.470655	0.106877	0.997403
	H367	H	0.571930	0.345987	1.256580
	N368	N	0.361370	0.237003	0.374694
	N369	N	0.648242	0.253047	0.409929
	N370	N	0.490279	0.104373	1.350122
	N371	N	0.510062	0.387839	1.375250
