data_Molecule from CHK

_cell_length_a		32.308521
_cell_length_b		32.405634
_cell_length_c		7.361484
_cell_angle_alpha	89.809303
_cell_angle_beta	89.565468
_cell_angle_gamma	94.993846
_symmetry_space_group_name_H-M	'P 1'
_symmetry_Int_Tables_number		1

loop_
	_symmetry_equiv_pos_as_xyz
	x,y,z

loop_
	_atom_site_label
	_atom_site_type_symbol
	_atom_site_fract_x
	_atom_site_fract_y
	_atom_site_fract_z
	C0	C	-0.009394	0.749909	0.380723
	C1	C	-0.019958	0.642510	0.760190
	C2	C	-0.001565	0.862057	0.727239
	C3	C	-0.118763	0.746219	0.015623
	C4	C	0.102253	0.748851	0.026647
	C5	C	-0.003762	0.682027	0.813851
	C6	C	-0.039414	0.846475	0.651598
	C7	C	-0.078417	0.758801	-0.045368
	C8	C	0.084639	0.712401	0.109575
	C9	C	0.000121	0.715249	0.693019
	C10	C	-0.041754	0.811875	0.538288
	C11	C	-0.044540	0.760621	0.070914
	C12	C	0.050111	0.712766	0.224795
	C13	C	-0.013201	0.711503	0.513035
	C14	C	-0.006771	0.790909	0.496153
	C15	C	-0.048341	0.748335	0.253002
	C16	C	0.031244	0.749236	0.261575
	C17	C	-0.030403	0.671992	0.460680
	C18	C	0.031160	0.807580	0.568704
	C19	C	-0.088685	0.734685	0.312765
	C20	C	0.049887	0.785707	0.181301
	C21	C	-0.033868	0.638291	0.581066
	C22	C	0.033884	0.842525	0.679444
	C23	C	-0.122996	0.733472	0.197327
	C24	C	0.084759	0.785704	0.068580
	H25	H	0.005158	0.686862	0.953921
	H26	H	-0.067096	0.861760	0.683485
	H27	H	-0.073075	0.766251	-0.187356
	H28	H	0.098218	0.683629	0.081820
	H29	H	0.013439	0.744666	0.743194
	H30	H	-0.071559	0.800900	0.482862
	H31	H	-0.014486	0.771164	0.015105
	H32	H	0.037472	0.683890	0.285435
	H33	H	-0.041200	0.667552	0.322413
	H34	H	0.059164	0.792552	0.539970
	H35	H	-0.093289	0.724609	0.452618
	H36	H	0.036542	0.814741	0.206010
	H37	H	-0.047465	0.608303	0.536840
	H38	H	0.063661	0.854836	0.732224
	H39	H	-0.153615	0.722295	0.247246
	H40	H	0.098643	0.814417	0.009878
	N41	N	-0.023802	0.610181	0.889965
	N42	N	0.001300	0.896996	0.840917
	N43	N	-0.152351	0.743382	-0.106248
	N44	N	0.137236	0.749135	-0.088422
	C45	C	0.325765	0.750005	-0.078278
	C46	C	0.293719	0.717921	-0.078828
	C47	C	0.263887	0.714201	0.058885
	C48	C	0.264347	0.742491	0.203665
	C49	C	0.296647	0.774550	0.203301
	C50	C	0.326664	0.778179	0.066165
	C51	C	0.231431	0.739315	0.347984
	C52	C	0.239021	0.753330	0.526448
	C53	C	0.207586	0.751706	0.657606
	C54	C	0.166994	0.735727	0.616829
	C55	C	0.159497	0.720770	0.440745
	C56	C	0.190811	0.722629	0.309690
	H57	H	0.214126	0.763094	0.793678
	H58	H	0.351114	0.803252	0.069256
	H59	H	0.128425	0.708079	0.407267
	H60	H	0.292633	0.695689	-0.188882
	H61	H	0.270192	0.765118	0.563764
	H62	H	0.297689	0.797398	0.310558
	H63	H	0.240191	0.688438	0.055371
	H64	H	0.183303	0.712234	0.173262
	C65	C	0.357453	0.753973	-0.223970
	H66	H	0.383607	0.777512	-0.203670
	C67	C	0.132644	0.735059	0.750046
	H68	H	0.101955	0.722484	0.701881
	C69	C	0.678412	0.744443	-0.145622
	C70	C	0.695636	0.783790	-0.093577
	C71	C	0.721771	0.788846	0.055690
	C72	C	0.732069	0.754844	0.160385
	C73	C	0.715327	0.715398	0.104868
	C74	C	0.689054	0.710300	-0.043751
	C75	C	0.759720	0.760084	0.321996
	C76	C	0.755603	0.732561	0.470770
	C77	C	0.782426	0.736487	0.618094
	C78	C	0.814464	0.768474	0.624928
	C79	C	0.818016	0.796778	0.479601
	C80	C	0.791423	0.792587	0.331818
	H81	H	0.778895	0.714755	0.730642
	H82	H	0.676419	0.679511	-0.081964
	H83	H	0.842605	0.821737	0.481009
	H84	H	0.687707	0.810501	-0.170903
	H85	H	0.730607	0.708026	0.472254
	H86	H	0.723633	0.688272	0.177846
	H87	H	0.733443	0.819869	0.094688
	H88	H	0.796222	0.814023	0.218873
	C89	C	0.648444	0.739004	-0.295522
	H90	H	0.634528	0.707222	-0.317087
	C91	C	0.845076	0.771551	0.772843
	H92	H	0.867057	0.799422	0.769313
	C93	C	0.006869	0.446805	0.938732
	C94	C	0.040945	0.449951	0.818758
	C95	C	0.041553	0.475179	0.665277
	C96	C	0.008140	0.498578	0.623915
	C97	C	-0.025325	0.496333	0.747999
	C98	C	-0.026069	0.470925	0.901122
	C99	C	0.008170	0.524308	0.455228
	C100	C	-0.028718	0.529914	0.361165
	C101	C	-0.028660	0.554254	0.204844
	C102	C	0.008363	0.574010	0.134345
	C103	C	0.045328	0.568104	0.226153
	C104	C	0.045212	0.543869	0.382446
	H105	H	-0.057463	0.558623	0.135550
	H106	H	-0.052449	0.469515	0.993376
	H107	H	0.074372	0.583071	0.174533
	H108	H	0.066693	0.431527	0.845877
	H109	H	-0.057790	0.514600	0.410651
	H110	H	-0.050793	0.515358	0.725268
	H111	H	0.067795	0.475684	0.572567
	H112	H	0.074209	0.540841	0.452153
	C113	C	0.004549	0.416883	1.090886
	H114	H	-0.025047	0.412849	1.166108
	C115	C	0.008887	0.602091	-0.023691
	H116	H	0.039487	0.617556	-0.060545
	C117	C	0.009829	0.084876	0.825327
	C118	C	-0.023384	0.053999	0.827229
	C119	C	-0.028029	0.024591	0.690077
	C120	C	0.000447	0.024256	0.544567
	C121	C	0.033594	0.055442	0.543273
	C122	C	0.038136	0.085087	0.679865
	C123	C	-0.003824	-0.008439	0.401589
	C124	C	0.010641	-0.001429	0.222336
	C125	C	0.007652	-0.032743	0.092529
	C126	C	-0.010132	-0.072633	0.135668
	C127	C	-0.025288	-0.079576	0.312921
	C128	C	-0.022091	-0.048397	0.442495
	H129	H	0.019281	-0.026644	-0.044397
	H130	H	0.064041	0.108663	0.675675
	H131	H	-0.039254	-0.110112	0.348519
	H132	H	-0.045768	0.053473	0.937961
	H133	H	0.023787	0.029236	0.183255
	H134	H	0.056539	0.055877	0.435136
	H135	H	-0.054666	0.001872	0.694732
	H136	H	-0.032779	-0.055527	0.579733
	C137	C	0.014728	0.115888	0.971561
	H138	H	0.038787	0.141612	0.950336
	C139	C	-0.012767	-0.106847	0.003696
	H140	H	-0.027049	-0.136852	0.053784
	C141	C	0.494694	0.746083	0.124022
	C142	C	0.386866	0.735239	0.502187
	C143	C	0.495258	0.855533	-0.242621
	C144	C	0.496066	0.635617	-0.229137
	C145	C	0.604820	0.762116	0.484117
	C146	C	0.398272	0.772546	0.410334
	C147	C	0.483408	0.815232	-0.302626
	C148	C	0.532988	0.654558	-0.157042
	C149	C	0.566076	0.744896	0.546957
	C150	C	0.431277	0.775787	0.285862
	C151	C	0.482355	0.781218	-0.185902
	C152	C	0.532607	0.688708	-0.041882
	C153	C	0.532049	0.739079	0.432255
	C154	C	0.454508	0.742247	0.247457
	C155	C	0.494586	0.784963	-0.004413
	C156	C	0.495660	0.705853	0.005616
	C157	C	0.534102	0.751288	0.249631
	C158	C	0.440733	0.704322	0.330005
	C159	C	0.507376	0.825255	0.054407
	C160	C	0.458809	0.685901	-0.063767
	C161	C	0.572960	0.769009	0.187573
	C162	C	0.407592	0.700752	0.452948
	C163	C	0.507956	0.859591	-0.061502
	C164	C	0.458867	0.651275	-0.175614
	C165	C	0.607463	0.774468	0.301632
	H166	H	0.381226	0.799159	0.438832
	H167	H	0.476038	0.809930	-0.444106
	H168	H	0.562102	0.642227	-0.192432
	H169	H	0.562398	0.736813	0.689185
	H170	H	0.439285	0.805135	0.218797
	H171	H	0.472306	0.751114	-0.240132
	H172	H	0.561773	0.702226	0.011432
	H173	H	0.503334	0.725239	0.490014
	H174	H	0.456913	0.677162	0.300607
	H175	H	0.517503	0.829737	0.193590
	H176	H	0.429406	0.697990	-0.031218
	H177	H	0.576158	0.779090	0.047170
	H178	H	0.397753	0.671090	0.514834
	H179	H	0.518950	0.890117	-0.012804
	H180	H	0.429864	0.636135	-0.224555
	H181	H	0.636868	0.788681	0.250195
	N182	N	0.355029	0.731276	0.633802
	N183	N	0.497837	0.889623	-0.362633
	N184	N	0.495663	0.601092	-0.344622
	N185	N	0.637828	0.769147	0.607294
	C186	C	0.008633	0.252460	0.617390
	C187	C	-0.003928	0.144109	0.248582
	C188	C	0.117251	0.254158	0.985597
	C189	C	-0.104436	0.253542	0.962107
	C190	C	0.028579	0.362045	0.252495
	C191	C	0.034047	0.156094	0.332535
	C192	C	0.076625	0.242865	1.046705
	C193	C	-0.084223	0.290538	0.894403
	C194	C	0.006823	0.325144	0.196080
	C195	C	0.037811	0.189116	0.454619
	C196	C	0.042845	0.241530	0.929779
	C197	C	-0.049230	0.290288	0.781795
	C198	C	-0.000006	0.291193	0.312122
	C199	C	0.004476	0.212601	0.494654
	C200	C	0.047336	0.251817	0.745524
	C201	C	-0.031860	0.253472	0.736581
	C202	C	0.014274	0.292013	0.491307
	C203	C	-0.033691	0.199389	0.414435
	C204	C	0.088132	0.262926	0.684410
	C205	C	-0.052062	0.216682	0.807287
	C206	C	0.034524	0.329786	0.549558
	C207	C	-0.037854	0.166155	0.294455
	C208	C	0.122249	0.263774	0.800625
	C209	C	-0.087516	0.216609	0.916340
	C210	C	0.041420	0.364085	0.433732
	H211	H	0.060597	0.139006	0.302128
	H212	H	0.070887	0.236853	1.189676
	H213	H	-0.096550	0.319594	0.928950
	H214	H	-0.003625	0.322923	0.056860
	H215	H	0.067459	0.196943	0.518211
	H216	H	0.012366	0.232839	0.986221
	H217	H	-0.034963	0.319438	0.729826
	H218	H	-0.016451	0.263574	0.258303
	H219	H	-0.060693	0.215897	0.444267
	H220	H	0.093161	0.271616	0.543077
	H221	H	-0.039519	0.187453	0.777799
	H222	H	0.045343	0.332275	0.688496
	H223	H	-0.067679	0.156948	0.233778
	H224	H	0.153259	0.272964	0.749466
	H225	H	-0.102638	0.187669	0.967470
	H226	H	0.057547	0.392583	0.482148
	N227	N	-0.008194	0.113379	0.114397
	N228	N	0.151254	0.254868	1.104533
	N229	N	-0.138654	0.252931	1.081455
	N230	N	0.034600	0.395097	0.128248
	C231	C	0.494011	0.415629	0.664397
	C232	C	0.525825	0.447942	0.661390
	C233	C	0.529602	0.477190	0.799447
	C234	C	0.501625	0.475915	0.947252
	C235	C	0.470076	0.443106	0.950217
	C236	C	0.466458	0.413583	0.812887
	C237	C	0.504868	0.508413	1.091404
	C238	C	0.490378	0.500680	1.270135
	C239	C	0.492270	0.531726	1.401104
	C240	C	0.509086	0.572069	1.360132
	C241	C	0.524133	0.579839	1.183250
	C242	C	0.522008	0.548897	1.052474
	H243	H	0.480504	0.525050	1.537385
	H244	H	0.441825	0.388689	0.818826
	H245	H	0.537172	0.610792	1.148800
	H246	H	0.547813	0.449748	0.548962
	H247	H	0.478004	0.469694	1.308101
	H248	H	0.447610	0.441154	1.060461
	H249	H	0.555191	0.501079	0.793397
	H250	H	0.532621	0.556667	0.915746
	C251	C	0.490287	0.384580	0.517991
	H252	H	0.468135	0.357363	0.541685
	C253	C	0.509943	0.605990	1.493348
	H254	H	0.522885	0.636610	1.444734
	C255	C	0.508367	1.066979	-0.383521
	C256	C	0.468918	1.046880	-0.348112
	C257	C	0.462086	1.019650	-0.202188
	C258	C	0.494313	1.011090	-0.084016
	C259	C	0.533900	1.031059	-0.121749
	C260	C	0.540751	1.058438	-0.267097
	C261	C	0.487115	0.981933	0.073083
	C262	C	0.510998	0.986251	0.232169
	C263	C	0.505668	0.957831	0.374545
	C264	C	0.475689	0.923951	0.366102
	C265	C	0.450858	0.920131	0.210331
	C266	C	0.456535	0.948311	0.067443
	H267	H	0.524734	0.961584	0.495020
	H268	H	0.571553	1.073536	-0.291470
	H269	H	0.427661	0.894048	0.199457
	H270	H	0.443467	1.053302	-0.436168
	H271	H	0.533758	1.012614	0.245729
	H272	H	0.559848	1.024467	-0.037271
	H273	H	0.430909	1.005625	-0.176917
	H274	H	0.438042	0.943243	-0.053877
	C275	C	0.515106	1.097963	-0.530481
	H276	H	0.546297	1.114397	-0.538733
	C277	C	0.471760	0.891639	0.508316
	H278	H	0.445298	0.868247	0.493000
	C279	C	0.324029	0.254011	1.130056
	C280	C	0.304435	0.214954	1.087732
	C281	C	0.277788	0.209567	0.940322
	C282	C	0.269368	0.242924	0.827561
	C283	C	0.288753	0.282102	0.872502
	C284	C	0.315542	0.287514	1.019258
	C285	C	0.240968	0.237371	0.668496
	C286	C	0.245977	0.263099	0.513981
	C287	C	0.218198	0.259413	0.370068
	C288	C	0.184282	0.229358	0.372259
	C289	C	0.179821	0.202685	0.523177
	C290	C	0.207398	0.206670	0.667605
	H291	H	0.222434	0.279884	0.253287
	H292	H	0.330203	0.318052	1.049219
	H293	H	0.153725	0.179333	0.529005
	H294	H	0.310826	0.188682	1.171480
	H295	H	0.272366	0.286049	0.505333
	H296	H	0.282129	0.308855	0.792700
	H297	H	0.264162	0.178696	0.909402
	H298	H	0.201883	0.186699	0.785162
	C299	C	0.354517	0.259445	1.278071
	H300	H	0.370596	0.290603	1.291211
	C301	C	0.152415	0.227408	0.229379
	H302	H	0.128659	0.201073	0.239529
	C303	C	0.674206	0.245481	1.076762
	C304	C	0.706231	0.277568	1.080455
	C305	C	0.735833	0.282355	0.942060
	C306	C	0.735202	0.255182	0.793170
	C307	C	0.702622	0.223403	0.789425
	C308	C	0.672761	0.218770	0.927068
	C309	C	0.768054	0.259403	0.648454
	C310	C	0.760749	0.245313	0.469960
	C311	C	0.792074	0.247960	0.338287
	C312	C	0.832299	0.265169	0.378107
	C313	C	0.839667	0.279836	0.554733
	C314	C	0.808409	0.276991	0.686240
	H315	H	0.785722	0.236419	0.202312
	H316	H	0.648079	0.193969	0.920377
	H317	H	0.870532	0.293147	0.588513
	H318	H	0.707537	0.298958	1.193709
	H319	H	0.729884	0.232608	0.432648
	H320	H	0.701094	0.201527	0.678334
	H321	H	0.759513	0.308083	0.948820
	H322	H	0.815860	0.287426	0.822625
	C323	C	0.642808	0.240536	1.223543
	H324	H	0.615872	0.218180	1.199133
	C325	C	0.866391	0.266641	0.243295
	H326	H	0.896987	0.279807	0.289896
	C327	C	0.505223	0.249416	0.871498
	C328	C	0.396433	0.235326	0.504305
	C329	C	0.615047	0.257840	0.504164
	C330	C	0.492266	0.139938	1.239025
	C331	C	0.509706	0.357915	1.238575
	C332	C	0.435442	0.252535	0.444405
	C333	C	0.599722	0.219728	0.580348
	C334	C	0.509559	0.178700	1.297836
	C335	C	0.472136	0.342239	1.160235
	C336	C	0.469069	0.258083	0.561609
	C337	C	0.566179	0.217067	0.702133
	C338	C	0.514846	0.212545	1.180319
	C339	C	0.470724	0.309142	1.038491
	C340	C	0.465981	0.246529	0.744908
	C341	C	0.545505	0.251835	0.749257
	C342	C	0.502984	0.209939	0.997929
	C343	C	0.506238	0.289230	0.993664
	C344	C	0.426401	0.230609	0.805863
	C345	C	0.561734	0.289914	0.675296
	C346	C	0.487301	0.170549	0.937728
	C347	C	0.543794	0.305913	1.069282
	C348	C	0.392344	0.225453	0.689318
	C349	C	0.595674	0.292931	0.556775
	C350	C	0.482341	0.136295	1.054509
	C351	C	0.545573	0.339401	1.187887
	H352	H	0.439958	0.259915	0.301833
	H353	H	0.614558	0.192143	0.544317
	H354	H	0.517135	0.182921	1.439847
	H355	H	0.443991	0.356446	1.194611
	H356	H	0.498359	0.271051	0.505703
	H357	H	0.555539	0.187223	0.759426
	H358	H	0.527775	0.241642	1.235440
	H359	H	0.441248	0.298267	0.979538
	H360	H	0.422357	0.221443	0.947125
	H361	H	0.547017	0.317775	0.708428
	H362	H	0.478079	0.166803	0.797020
	H363	H	0.572237	0.291942	1.037187
	H364	H	0.362316	0.212715	0.740138
	H365	H	0.607526	0.322797	0.502407
	H366	H	0.469637	0.106445	1.004368
	H367	H	0.575057	0.351572	1.243775
	N368	N	0.363220	0.229668	0.381752
	N369	N	0.646322	0.261603	0.370170
	N370	N	0.486198	0.106515	1.361439
	N371	N	0.512196	0.388748	1.372503
