data_Molecule from CHK

_cell_length_a		34.494095
_cell_length_b		36.415357
_cell_length_c		7.512876
_cell_angle_alpha	87.164716
_cell_angle_beta	92.197133
_cell_angle_gamma	92.152913
_symmetry_space_group_name_H-M	'P 1'
_symmetry_Int_Tables_number		1

loop_
	_symmetry_equiv_pos_as_xyz
	x,y,z

loop_
	_atom_site_label
	_atom_site_type_symbol
	_atom_site_fract_x
	_atom_site_fract_y
	_atom_site_fract_z
	C0	C	0.008507	0.759399	1.041702
	C1	C	-0.005035	0.657027	1.386510
	C2	C	0.010849	0.858733	1.362119
	C3	C	-0.093049	0.764245	0.659390
	C4	C	0.112794	0.759179	0.713263
	C5	C	0.006237	0.690741	1.459034
	C6	C	-0.020481	0.850564	1.244806
	C7	C	-0.056077	0.777873	0.611266
	C8	C	0.093594	0.726226	0.768816
	C9	C	0.010779	0.722859	1.351375
	C10	C	-0.021346	0.819270	1.144603
	C11	C	-0.024227	0.776306	0.731555
	C12	C	0.061601	0.726222	0.877091
	C13	C	0.003964	0.723495	1.166239
	C14	C	0.009239	0.794837	1.153497
	C15	C	-0.027181	0.760757	0.904964
	C16	C	0.046918	0.758802	0.935004
	C17	C	-0.009255	0.690001	1.096155
	C18	C	0.041323	0.804211	1.265010
	C19	C	-0.064160	0.747245	0.952708
	C20	C	0.067370	0.791485	0.884098
	C21	C	-0.013705	0.657740	1.202583
	C22	C	0.042232	0.835246	1.367165
	C23	C	-0.095966	0.748351	0.832582
	C24	C	0.099828	0.791713	0.778669
	H25	H	0.010469	0.692547	1.601789
	H26	H	-0.044545	0.868996	1.234837
	H27	H	-0.051452	0.789944	0.479098
	H28	H	0.103978	0.700436	0.726391
	H29	H	0.018939	0.747896	1.416495
	H30	H	-0.046406	0.814170	1.057115
	H31	H	0.003565	0.787363	0.688243
	H32	H	0.048015	0.700064	0.916463
	H33	H	-0.016807	0.689212	0.954962
	H34	H	0.066154	0.786756	1.270831
	H35	H	-0.068166	0.735566	1.086530
	H36	H	0.057502	0.817473	0.925836
	H37	H	-0.024230	0.632437	1.143987
	H38	H	0.067744	0.841706	1.450141
	H39	H	-0.123893	0.736541	0.871710
	H40	H	0.115180	0.817377	0.742564
	N41	N	-0.010532	0.624075	1.488586
	N42	N	0.011092	0.890679	1.459494
	N43	N	-0.126238	0.763579	0.546256
	N44	N	0.144924	0.759789	0.603477
	C45	C	0.327037	0.749203	0.702507
	C46	C	0.295843	0.723485	0.692077
	C47	C	0.266699	0.722190	0.815427
	C48	C	0.267200	0.746558	0.955233
	C49	C	0.298748	0.772102	0.965487
	C50	C	0.327949	0.773414	0.842317
	C51	C	0.235350	0.745768	1.084694
	C52	C	0.241943	0.755934	1.261936
	C53	C	0.211864	0.756010	1.380314
	C54	C	0.173751	0.745534	1.327687
	C55	C	0.167053	0.734871	1.151994
	C56	C	0.197055	0.735168	1.033440
	H57	H	0.217646	0.764124	1.516024
	H58	H	0.351905	0.793372	0.853733
	H59	H	0.137799	0.726943	1.107745
	H60	H	0.294820	0.704353	0.585675
	H61	H	0.271199	0.763226	1.308720
	H62	H	0.299967	0.791661	1.069754
	H63	H	0.243519	0.701410	0.805111
	H64	H	0.190463	0.728062	0.896966
	C65	C	0.357792	0.750878	0.571118
	H66	H	0.381229	0.771749	0.590708
	C67	C	0.141484	0.745708	1.450595
	H68	H	0.113526	0.733848	1.401456
	C69	C	0.667237	0.741502	0.700394
	C70	C	0.694066	0.770264	0.659247
	C71	C	0.726240	0.777445	0.771295
	C72	C	0.733392	0.756129	0.929737
	C73	C	0.706278	0.727319	0.969811
	C74	C	0.673982	0.720233	0.858534
	C75	C	0.768398	0.763069	1.048508
	C76	C	0.768713	0.752955	1.231877
	C77	C	0.801929	0.757548	1.340620
	C78	C	0.836431	0.773017	1.272128
	C79	C	0.835932	0.784582	1.091268
	C80	C	0.802869	0.779452	0.982019
	H81	H	0.801544	0.748946	1.480858
	H82	H	0.653687	0.697850	0.893741
	H83	H	0.862031	0.797188	1.035613
	H84	H	0.689134	0.787200	0.538209
	H85	H	0.742466	0.741662	1.291412
	H86	H	0.710911	0.709643	1.088369
	H87	H	0.745683	0.800513	0.736543
	H88	H	0.804348	0.787370	0.841441
	C89	C	0.632966	0.733841	0.582675
	H90	H	0.613098	0.711635	0.631202
	C91	C	0.872292	0.776259	1.384977
	H92	H	0.897322	0.789447	1.318850
	C93	C	-0.021306	0.409576	1.242527
	C94	C	-0.009022	0.441683	1.327175
	C95	C	-0.006288	0.475474	1.232871
	C96	C	-0.015254	0.478868	1.048568
	C97	C	-0.028321	0.446632	0.965427
	C98	C	-0.031521	0.412897	1.060111
	C99	C	-0.010435	0.514817	0.945547
	C100	C	-0.032687	0.523077	0.788744
	C101	C	-0.027211	0.556140	0.690408
	C102	C	0.000604	0.582781	0.744614
	C103	C	0.022558	0.575015	0.902068
	C104	C	0.017202	0.541856	0.999600
	H105	H	-0.044686	0.561845	0.569788
	H106	H	-0.041715	0.388633	0.991957
	H107	H	0.044243	0.595130	0.947151
	H108	H	-0.001379	0.439743	1.468598
	H109	H	-0.055114	0.503638	0.744380
	H110	H	-0.035122	0.447692	0.823325
	H111	H	0.002543	0.499688	1.304470
	H112	H	0.035533	0.536506	1.117647
	C113	C	-0.022975	0.373502	1.341435
	H114	H	-0.033327	0.350263	1.263044
	C115	C	0.007177	0.617492	0.638508
	H116	H	0.028882	0.636867	0.695150
	C117	C	0.007063	0.078663	1.273972
	C118	C	-0.013313	0.045438	1.315000
	C119	C	-0.011104	0.015377	1.209214
	C120	C	0.011358	0.017179	1.056597
	C121	C	0.030920	0.050831	1.013288
	C122	C	0.029003	0.080840	1.120026
	C123	C	0.014058	-0.015433	0.946159
	C124	C	0.012827	-0.012029	0.758928
	C125	C	0.014146	-0.042722	0.656398
	C126	C	0.017413	-0.078189	0.736174
	C127	C	0.019656	-0.081613	0.923050
	C128	C	0.017795	-0.050990	1.025523
	H129	H	0.012700	-0.039556	0.512242
	H130	H	0.044546	0.106402	1.084456
	H131	H	0.022626	-0.108654	0.987835
	H132	H	-0.031111	0.043568	1.431193
	H133	H	0.009814	0.015015	0.694100
	H134	H	0.048390	0.053043	0.896122
	H135	H	-0.027661	-0.009768	1.242219
	H136	H	0.019847	-0.054465	1.169676
	C137	C	0.006157	0.109867	1.391471
	H138	H	0.023664	0.134593	1.352342
	C139	C	0.017378	-0.110989	0.628591
	H140	H	0.022101	-0.137343	0.702323
	C141	C	0.488098	0.737328	0.967879
	C142	C	0.387874	0.731576	1.321424
	C143	C	0.489527	0.838082	0.608486
	C144	C	0.487241	0.640997	0.629278
	C145	C	0.593907	0.745729	1.323487
	C146	C	0.399328	0.764827	1.232956
	C147	C	0.477461	0.803661	0.545703
	C148	C	0.521967	0.654766	0.708327
	C149	C	0.558146	0.732425	1.388212
	C150	C	0.430176	0.766579	1.117481
	C151	C	0.476403	0.772095	0.658984
	C152	C	0.522258	0.684576	0.818315
	C153	C	0.525188	0.729064	1.275862
	C154	C	0.451187	0.735520	1.084962
	C155	C	0.487983	0.772808	0.839572
	C156	C	0.488184	0.702199	0.854666
	C157	C	0.525608	0.739473	1.093955
	C158	C	0.437936	0.702028	1.165849
	C159	C	0.500511	0.807215	0.901109
	C160	C	0.453458	0.687296	0.780189
	C161	C	0.561332	0.753232	1.030293
	C162	C	0.406748	0.699963	1.279008
	C163	C	0.501498	0.838884	0.788934
	C164	C	0.452854	0.657059	0.673130
	C165	C	0.594479	0.756504	1.141740
	H166	H	0.383763	0.789402	1.254921
	H167	H	0.469639	0.800801	0.406210
	H168	H	0.548833	0.641707	0.683617
	H169	H	0.555225	0.725542	1.528873
	H170	H	0.437930	0.792758	1.052021
	H171	H	0.466783	0.746365	0.603219
	H172	H	0.549644	0.694067	0.877300
	H173	H	0.498556	0.718632	1.334038
	H174	H	0.452765	0.677103	1.142160
	H175	H	0.510071	0.809123	1.039623
	H176	H	0.426302	0.699813	0.805429
	H177	H	0.563053	0.762051	0.890759
	H178	H	0.397078	0.673673	1.338788
	H179	H	0.511986	0.864928	0.840080
	H180	H	0.425512	0.645832	0.619945
	H181	H	0.621447	0.767883	1.088924
	N182	N	0.357749	0.729076	1.442568
	N183	N	0.492750	0.870522	0.501314
	N184	N	0.486296	0.611008	0.518446
	N185	N	0.627292	0.751301	1.432879
	C186	C	-0.012800	0.236388	0.970114
	C187	C	-0.013365	0.138039	0.644042
	C188	C	0.092380	0.247989	1.327221
	C189	C	-0.114242	0.230589	1.317115
	C190	C	-0.012638	0.336927	0.608293
	C191	C	0.021459	0.153152	0.716070
	C192	C	0.056877	0.234081	1.392324
	C193	C	-0.102333	0.263835	1.229844
	C194	C	-0.027472	0.302920	0.550639
	C195	C	0.021651	0.183533	0.822395
	C196	C	0.024049	0.229861	1.279840
	C197	C	-0.071193	0.265507	1.116000
	C198	C	-0.027535	0.271321	0.663950
	C199	C	-0.012503	0.201131	0.857751
	C200	C	0.024650	0.238920	1.096491
	C201	C	-0.049759	0.234526	1.086943
	C202	C	-0.013437	0.271795	0.841191
	C203	C	-0.047186	0.185694	0.785397
	C204	C	0.060435	0.252221	1.031666
	C205	C	-0.062445	0.201255	1.171823
	C206	C	0.000707	0.306000	0.899122
	C207	C	-0.047712	0.154873	0.682145
	C208	C	0.093414	0.256491	1.143281
	C209	C	-0.093895	0.199255	1.283510
	C210	C	0.001143	0.337577	0.786321
	H211	H	0.048444	0.140305	0.691305
	H212	H	0.053862	0.228010	1.533668
	H213	H	-0.118143	0.288387	1.249433
	H214	H	-0.038576	0.300281	0.415289
	H215	H	0.049082	0.193540	0.878766
	H216	H	-0.002592	0.219799	1.339226
	H217	H	-0.063408	0.291586	1.049540
	H218	H	-0.038794	0.245795	0.611290
	H219	H	-0.074414	0.198187	0.809636
	H220	H	0.062296	0.259980	0.890976
	H221	H	-0.047012	0.176481	1.151939
	H222	H	0.011827	0.307888	1.035403
	H223	H	-0.075004	0.143489	0.629126
	H224	H	0.120519	0.267183	1.089105
	H225	H	-0.102928	0.173177	1.347578
	H226	H	0.013179	0.363376	0.834119
	N227	N	-0.014131	0.108452	0.530896
	N228	N	0.126194	0.252710	1.434559
	N229	N	-0.143426	0.228437	1.442898
	N230	N	-0.012518	0.370105	0.505881
	C231	C	0.516113	0.424515	0.720192
	C232	C	0.513602	0.460137	0.641334
	C233	C	0.512461	0.490706	0.744787
	C234	C	0.513253	0.487017	0.931944
	C235	C	0.516284	0.451306	1.010326
	C236	C	0.517960	0.420799	0.906993
	C237	C	0.511013	0.519502	1.043532
	C238	C	0.488253	0.517909	1.195185
	C239	C	0.486510	0.547860	1.302042
	C240	C	0.507754	0.580706	1.263276
	C241	C	0.529861	0.582737	1.109856
	C242	C	0.531306	0.552856	1.002035
	H243	H	0.468463	0.546187	1.417407
	H244	H	0.520445	0.393627	0.970910
	H245	H	0.545952	0.608073	1.075703
	H246	H	0.512627	0.463527	0.497218
	H247	H	0.471106	0.493030	1.226522
	H248	H	0.518011	0.447635	1.154430
	H249	H	0.510022	0.517884	0.680725
	H250	H	0.548955	0.554921	0.885433
	C251	C	0.516516	0.391914	0.611563
	H252	H	0.521222	0.365459	0.684420
	C253	C	0.506994	0.611969	1.380348
	H254	H	0.524963	0.636444	1.341905
	C255	C	0.504478	1.083468	-0.257103
	C256	C	0.491449	1.051746	-0.343087
	C257	C	0.488219	1.017780	-0.250226
	C258	C	0.497298	1.013857	-0.066080
	C259	C	0.510586	1.045855	0.018559
	C260	C	0.514393	1.079671	-0.074571
	C261	C	0.492564	0.977822	0.036645
	C262	C	0.513917	0.970358	0.196977
	C263	C	0.508614	0.937460	0.296525
	C264	C	0.481918	0.910062	0.240195
	C265	C	0.461137	0.916819	0.078520
	C266	C	0.466223	0.949924	-0.020100
	H267	H	0.525441	0.932473	0.419745
	H268	H	0.525054	1.103611	-0.005094
	H269	H	0.440549	0.895963	0.031158
	H270	H	0.483842	1.054113	-0.484478
	H271	H	0.535658	0.990220	0.243627
	H272	H	0.517248	1.044648	0.160731
	H273	H	0.478956	0.993866	-0.323124
	H274	H	0.448772	0.954420	-0.141600
	C275	C	0.507146	1.119844	-0.352631
	H276	H	0.518325	1.142322	-0.271116
	C277	C	0.476227	0.875342	0.347532
	H278	H	0.456607	0.854605	0.287656
	C279	C	0.336946	0.272288	1.266370
	C280	C	0.302520	0.256675	1.334957
	C281	C	0.269211	0.252244	1.226682
	C282	C	0.268734	0.262594	1.043570
	C283	C	0.303184	0.278950	0.976754
	C284	C	0.336345	0.283923	1.085571
	C285	C	0.233584	0.255840	0.925466
	C286	C	0.226233	0.277423	0.768067
	C287	C	0.193766	0.270589	0.657300
	C288	C	0.166881	0.241875	0.698548
	C289	C	0.173781	0.220390	0.855852
	C290	C	0.206377	0.227121	0.965799
	H291	H	0.188654	0.287762	0.537197
	H292	H	0.362415	0.296531	1.029640
	H293	H	0.153391	0.198103	0.891346
	H294	H	0.302249	0.247876	1.474964
	H295	H	0.245733	0.300444	0.733243
	H296	H	0.304554	0.286979	0.836253
	H297	H	0.243009	0.240894	1.286385
	H298	H	0.211145	0.209247	1.083541
	C299	C	0.372992	0.275006	1.378302
	H300	H	0.398073	0.287959	1.311662
	C301	C	0.132050	0.234916	0.583291
	H302	H	0.111948	0.212982	0.632596
	C303	C	0.675412	0.246012	1.337896
	C304	C	0.713441	0.257525	1.386659
	C305	C	0.743159	0.257440	1.266422
	C306	C	0.736241	0.246277	1.091017
	C307	C	0.698002	0.234802	1.043394
	C308	C	0.668365	0.234527	1.163823
	C309	C	0.767660	0.247031	0.959457
	C310	C	0.767260	0.221853	0.823186
	C311	C	0.795958	0.223038	0.697758
	C312	C	0.826545	0.249486	0.702282
	C313	C	0.827489	0.274385	0.839188
	C314	C	0.798720	0.273187	0.964469
	H315	H	0.794989	0.203308	0.594002
	H316	H	0.639132	0.225874	1.122586
	H317	H	0.851047	0.294857	0.846298
	H318	H	0.719467	0.266377	1.520975
	H319	H	0.744515	0.200567	0.817241
	H320	H	0.691173	0.226970	0.908200
	H321	H	0.772402	0.265482	1.310361
	H322	H	0.799846	0.293316	1.066134
	C323	C	0.643460	0.246427	1.462338
	H324	H	0.615499	0.234105	1.415996
	C325	C	0.856833	0.250911	0.568642
	H326	H	0.879944	0.272248	0.584000
	C327	C	0.508803	0.260831	1.038301
	C328	C	0.498542	0.158482	1.386711
	C329	C	0.511200	0.362245	1.343221
	C330	C	0.407951	0.262193	0.651197
	C331	C	0.615434	0.260584	0.725605
	C332	C	0.512605	0.191855	1.454699
	C333	C	0.478823	0.352187	1.235819
	C334	C	0.444571	0.277020	0.604762
	C335	C	0.596193	0.227640	0.781159
	C336	C	0.515347	0.224110	1.346601
	C337	C	0.477974	0.320235	1.140466
	C338	C	0.476236	0.276353	0.726247
	C339	C	0.563390	0.227727	0.884215
	C340	C	0.505123	0.225053	1.164260
	C341	C	0.509140	0.296468	1.148331
	C342	C	0.473183	0.261588	0.901059
	C343	C	0.547326	0.260439	0.932506
	C344	C	0.490732	0.191640	1.097530
	C345	C	0.541659	0.307039	1.254530
	C346	C	0.436250	0.247937	0.948806
	C347	C	0.566871	0.293246	0.876100
	C348	C	0.487500	0.159410	1.204986
	C349	C	0.542590	0.338747	1.351813
	C350	C	0.404684	0.247926	0.827179
	C351	C	0.600126	0.293423	0.776014
	H352	H	0.520936	0.193625	1.594179
	H353	H	0.454255	0.370022	1.227272
	H354	H	0.449256	0.288851	0.472199
	H355	H	0.607639	0.201764	0.745639
	H356	H	0.525465	0.248925	1.409084
	H357	H	0.452471	0.314104	1.057449
	H358	H	0.503873	0.287773	0.682839
	H359	H	0.550185	0.201592	0.927064
	H360	H	0.481587	0.190846	0.958071
	H361	H	0.566924	0.290129	1.259484
	H362	H	0.432142	0.236994	1.083836
	H363	H	0.555645	0.319301	0.909518
	H364	H	0.475536	0.134298	1.149591
	H365	H	0.568317	0.345992	1.431816
	H366	H	0.376739	0.236261	0.866881
	H367	H	0.614588	0.319199	0.734259
	N368	N	0.496762	0.124566	1.483331
	N369	N	0.510706	0.393900	1.442233
	N370	N	0.374558	0.262127	0.539262
	N371	N	0.647175	0.261173	0.613531
