data_Molecule from CHK

_cell_length_a		18.907065
_cell_length_b		18.330382
_cell_length_c		6.678689
_cell_angle_alpha	88.333354
_cell_angle_beta	91.645611
_cell_angle_gamma	96.306445
_symmetry_space_group_name_H-M	'P 1'
_symmetry_Int_Tables_number		1

loop_
	_symmetry_equiv_pos_as_xyz
	x,y,z

loop_
	_atom_site_label
	_atom_site_type_symbol
	_atom_site_fract_x
	_atom_site_fract_y
	_atom_site_fract_z
	C0	C	0.011748	0.766902	0.861318
	C1	C	-0.006062	0.572035	1.277004
	C2	C	0.018586	0.954600	1.263648
	C3	C	-0.181488	0.740342	0.459875
	C4	C	0.196837	0.772168	0.470153
	C5	C	0.026043	0.639868	1.336960
	C6	C	-0.044666	0.929934	1.162764
	C7	C	-0.116474	0.772741	0.391468
	C8	C	0.175558	0.709132	0.584051
	C9	C	0.033484	0.700261	1.203698
	C10	C	-0.045500	0.874525	1.022068
	C11	C	-0.056451	0.783010	0.519393
	C12	C	0.120261	0.709279	0.719338
	C13	C	0.007042	0.696861	1.006806
	C14	C	0.014654	0.839062	0.986059
	C15	C	-0.057284	0.759392	0.719698
	C16	C	0.081757	0.769819	0.737028
	C17	C	-0.025495	0.627711	0.948714
	C18	C	0.078849	0.871365	1.071004
	C19	C	-0.123423	0.725995	0.785619
	C20	C	0.110181	0.834668	0.639059
	C21	C	-0.033887	0.567050	1.081519
	C22	C	0.081242	0.929830	1.201457
	C23	C	-0.183622	0.714708	0.658526
	C24	C	0.168209	0.836555	0.513371
	H25	H	0.043365	0.645758	1.490100
	H26	H	-0.093129	0.953077	1.194722
	H27	H	-0.112203	0.788292	0.236205
	H28	H	0.201105	0.659958	0.565418
	H29	H	0.060735	0.750928	1.257211
	H30	H	-0.095280	0.857677	0.943840
	H31	H	-0.008142	0.810476	0.458951
	H32	H	0.105688	0.659408	0.806271
	H33	H	-0.045429	0.620721	0.796124
	H34	H	0.128139	0.849739	1.037996
	H35	H	-0.128513	0.707515	0.940417
	H36	H	0.086056	0.884707	0.659931
	H37	H	-0.062040	0.515519	1.035529
	H38	H	0.131002	0.956219	1.260346
	H39	H	-0.232682	0.685771	0.711756
	H40	H	0.191597	0.886975	0.443904
	N41	N	-0.017559	0.508564	1.418884
	N42	N	0.023462	1.008351	1.425161
	N43	N	-0.245389	0.726301	0.326262
	N44	N	0.250835	0.775109	0.314179
	O45	O	-0.074921	0.466626	1.399521
	O46	O	-0.288179	0.669974	0.364848
	O47	O	0.294850	0.831969	0.297652
	O48	O	0.078178	1.054534	1.437162
	C49	C	0.486208	0.730879	0.638476
	C50	C	0.479030	0.540791	0.243105
	C51	C	0.678059	0.761146	1.044272
	C52	C	0.298688	0.724352	1.021938
	C53	C	0.507407	0.924253	0.218017
	C54	C	0.542623	0.567151	0.339669
	C55	C	0.613732	0.726080	1.110093
	C56	C	0.321471	0.788046	0.912627
	C57	C	0.472428	0.857241	0.161289
	C58	C	0.543541	0.623165	0.478575
	C59	C	0.554053	0.715043	0.981135
	C60	C	0.377328	0.788206	0.779069
	C61	C	0.464082	0.797292	0.295891
	C62	C	0.483373	0.658656	0.514051
	C63	C	0.555097	0.738562	0.780744
	C64	C	0.416113	0.727837	0.762315
	C65	C	0.491004	0.800764	0.492319
	C66	C	0.419189	0.626493	0.428652
	C67	C	0.621233	0.772258	0.715615
	C68	C	0.387980	0.662952	0.860714
	C69	C	0.523848	0.869906	0.549466
	C70	C	0.416627	0.567430	0.300200
	C71	C	0.680942	0.784831	0.844052
	C72	C	0.329300	0.660609	0.984095
	C73	C	0.533442	0.930039	0.415142
	H74	H	0.591159	0.544163	0.307627
	H75	H	0.609289	0.709930	1.264875
	H76	H	0.295947	0.837229	0.931341
	H77	H	0.454378	0.851156	0.008833
	H78	H	0.593317	0.640254	0.556526
	H79	H	0.506124	0.686258	1.040385
	H80	H	0.392307	0.838270	0.693367
	H81	H	0.435691	0.746967	0.243673
	H82	H	0.369974	0.648442	0.460730
	H83	H	0.626594	0.790332	0.560580
	H84	H	0.412638	0.613143	0.841129
	H85	H	0.543536	0.877155	0.702189
	H86	H	0.366843	0.541371	0.240519
	H87	H	0.730005	0.813890	0.791215
	H88	H	0.306345	0.610157	1.054375
	H89	H	0.561826	0.981528	0.460596
	N90	N	0.474110	0.488320	0.078260
	N91	N	0.742295	0.774255	1.177018
	N92	N	0.245853	0.721284	1.181176
	N93	N	0.518342	0.987898	0.076517
	O94	O	0.419431	0.442112	0.065148
	O95	O	0.201174	0.664879	1.196526
	O96	O	0.575028	1.030767	0.098182
	O97	O	0.785291	0.830489	1.138663
	C98	C	-0.008274	0.242181	0.129466
	C99	C	-0.192050	0.257516	0.518064
	C100	C	0.020292	0.433759	-0.296983
	C101	C	-0.019505	0.053411	-0.268815
	C102	C	0.180795	0.265643	0.542605
	C103	C	-0.168544	0.314959	0.386373
	C104	C	-0.016290	0.367234	-0.352281
	C105	C	0.043969	0.075815	-0.165640
	C106	C	0.115509	0.231891	0.604583
	C107	C	-0.114118	0.307969	0.252970
	C108	C	-0.026464	0.307871	-0.216166
	C109	C	0.046289	0.131334	-0.024729
	C110	C	0.056728	0.222885	0.472631
	C111	C	-0.078625	0.244911	0.250093
	C112	C	0.000340	0.311275	-0.019806
	C113	C	-0.012693	0.168800	0.010029
	C114	C	0.059770	0.247699	0.273668
	C115	C	-0.110349	0.184562	0.360826
	C116	C	0.034896	0.379942	0.035786
	C117	C	-0.077185	0.137942	-0.074598
	C118	C	0.126989	0.279783	0.212014
	C119	C	-0.166899	0.189976	0.489035
	C120	C	0.046212	0.439527	-0.099829
	C121	C	-0.081329	0.080092	-0.207606
	C122	C	0.185972	0.290251	0.343538
	H123	H	-0.190867	0.366633	0.393534
	H124	H	-0.033858	0.360749	-0.505116
	H125	H	0.091612	0.051150	-0.197254
	H126	H	0.109937	0.215359	0.758747
	H127	H	-0.097716	0.354838	0.156630
	H128	H	-0.056368	0.257942	-0.265936
	H129	H	0.096206	0.146852	0.054232
	H130	H	0.008056	0.194575	0.528283
	H131	H	-0.089926	0.131998	0.348235
	H132	H	0.054360	0.387421	0.188653
	H133	H	-0.125240	0.160732	-0.037657
	H134	H	0.133883	0.298027	0.057575
	H135	H	-0.190910	0.141090	0.563609
	H136	H	0.075607	0.490675	-0.055153
	H137	H	-0.131791	0.056505	-0.269573
	H138	H	0.236137	0.318037	0.294520
	N139	N	-0.243574	0.272689	0.672375
	N140	N	0.031926	0.497310	-0.438885
	N141	N	-0.025053	-0.000102	-0.430927
	N142	N	0.243548	0.275678	0.680048
	O143	O	-0.266370	0.335037	0.661743
	O144	O	-0.079648	-0.046390	-0.442157
	O145	O	0.286028	0.333472	0.657154
	O146	O	0.088628	0.540126	-0.416957
	C147	C	0.506128	0.255977	0.370579
	C148	C	0.315643	0.235863	-0.037785
	C149	C	0.689841	0.241097	-0.018737
	C150	C	0.481182	0.062803	0.792569
	C151	C	0.517266	0.444117	0.771207
	C152	C	0.381607	0.266597	-0.102934
	C153	C	0.666437	0.183599	0.112872
	C154	C	0.515388	0.130120	0.850469
	C155	C	0.453694	0.421579	0.668738
	C156	C	0.440779	0.274929	0.027736
	C157	C	0.612095	0.190494	0.246605
	C158	C	0.524840	0.189864	0.715365
	C159	C	0.451390	0.366341	0.526974
	C160	C	0.437925	0.250561	0.227096
	C161	C	0.576467	0.253467	0.249685
	C162	C	0.497865	0.186677	0.519142
	C163	C	0.510490	0.329237	0.490697
	C164	C	0.370729	0.218797	0.289837
	C165	C	0.607950	0.313828	0.138555
	C166	C	0.463401	0.118047	0.462959
	C167	C	0.575024	0.360380	0.574379
	C168	C	0.311225	0.209515	0.159891
	C169	C	0.664518	0.308549	0.010271
	C170	C	0.453325	0.057916	0.597176
	C171	C	0.579127	0.417993	0.708169
	H172	H	0.386953	0.282222	-0.257797
	H173	H	0.688843	0.131975	0.105542
	H174	H	0.532512	0.136468	1.003731
	H175	H	0.405957	0.445885	0.701518
	H176	H	0.489807	0.301708	-0.029756
	H177	H	0.595578	0.143407	0.342051
	H178	H	0.553703	0.240167	0.766288
	H179	H	0.401383	0.350763	0.448538
	H180	H	0.364144	0.200293	0.444180
	H181	H	0.587349	0.366300	0.151083
	H182	H	0.443502	0.110851	0.310379
	H183	H	0.623155	0.337972	0.536239
	H184	H	0.261058	0.181957	0.209591
	H185	H	0.688436	0.357453	-0.064401
	H186	H	0.424009	0.006778	0.552109
	H187	H	0.629613	0.441788	0.769484
	N188	N	0.253181	0.224854	-0.175987
	N189	N	0.741384	0.225996	-0.173063
	N190	N	0.468639	-0.000420	0.935252
	N191	N	0.522984	0.496799	0.935485
	O192	O	0.210965	0.166935	-0.152773
	O193	O	0.411960	-0.043138	0.912362
	O194	O	0.577020	0.543814	0.945897
	O195	O	0.764239	0.163675	-0.162375
