data_Molecule from CHK

_cell_length_a		19.794508
_cell_length_b		19.806327
_cell_length_c		7.765127
_cell_angle_alpha	91.584121
_cell_angle_beta	88.435810
_cell_angle_gamma	85.084349
_symmetry_space_group_name_H-M	'P 1'
_symmetry_Int_Tables_number		1

loop_
	_symmetry_equiv_pos_as_xyz
	x,y,z

loop_
	_atom_site_label
	_atom_site_type_symbol
	_atom_site_fract_x
	_atom_site_fract_y
	_atom_site_fract_z
	C0	C	-0.005727	0.743886	0.500706
	C1	C	0.000523	0.560501	0.816928
	C2	C	-0.016863	0.920460	0.864890
	C3	C	-0.189184	0.749614	0.184160
	C4	C	0.170291	0.733349	0.134712
	C5	C	0.026544	0.619486	0.878486
	C6	C	-0.075266	0.899282	0.791483
	C7	C	-0.130211	0.775708	0.122658
	C8	C	0.149443	0.674890	0.208317
	C9	C	0.024263	0.677308	0.778836
	C10	C	-0.071249	0.844564	0.673296
	C11	C	-0.072386	0.773595	0.222452
	C12	C	0.094993	0.678734	0.327350
	C13	C	-0.003021	0.678878	0.614341
	C14	C	-0.009454	0.808697	0.623581
	C15	C	-0.070742	0.746290	0.386881
	C16	C	0.059076	0.740405	0.377709
	C17	C	-0.028014	0.618624	0.554866
	C18	C	0.048807	0.832111	0.695430
	C19	C	-0.131037	0.721386	0.446492
	C20	C	0.082300	0.798743	0.306035
	C21	C	-0.027385	0.560927	0.654052
	C22	C	0.045685	0.886867	0.813899
	C23	C	-0.188749	0.721876	0.347205
	C24	C	0.136781	0.795794	0.186711
	H25	H	0.050206	0.620808	1.001533
	H26	H	-0.123789	0.925491	0.829050
	H27	H	-0.128866	0.799320	-0.000418
	H28	H	0.175620	0.626452	0.170008
	H29	H	0.044649	0.721657	0.833487
	H30	H	-0.118009	0.829343	0.621971
	H31	H	-0.028057	0.794048	0.167843
	H32	H	0.079941	0.631932	0.378628
	H33	H	-0.048374	0.616230	0.427084
	H34	H	0.097858	0.806049	0.660604
	H35	H	-0.133407	0.701127	0.574360
	H36	H	0.056217	0.847711	0.341402
	H37	H	-0.048715	0.515950	0.605988
	H38	H	0.091806	0.901645	0.868966
	H39	H	-0.233744	0.700571	0.395319
	H40	H	0.151337	0.841963	0.131637
	N41	N	0.001144	0.497172	0.913276
	N42	N	-0.025126	0.977123	0.993677
	N43	N	-0.252514	0.749864	0.087658
	N44	N	0.226245	0.725248	0.003884
	O45	O	0.001049	0.442060	0.826749
	O46	O	-0.307721	0.750693	0.174262
	O47	O	0.232451	0.671051	-0.087929
	O48	O	-0.079448	0.983843	1.084995
	C49	C	0.503691	0.753947	0.499984
	C50	C	0.514863	0.575228	0.142337
	C51	C	0.685904	0.751074	0.820515
	C52	C	0.324634	0.765122	0.856704
	C53	C	0.501177	0.936192	0.180073
	C54	C	0.573356	0.597698	0.212302
	C55	C	0.627864	0.722449	0.879071
	C56	C	0.347420	0.823608	0.787688
	C57	C	0.472378	0.878292	0.121346
	C58	C	0.569302	0.653087	0.328427
	C59	C	0.570244	0.723955	0.778529
	C60	C	0.402838	0.819550	0.671609
	C61	C	0.473624	0.820722	0.221863
	C62	C	0.507472	0.689050	0.377399
	C63	C	0.568582	0.751470	0.614319
	C64	C	0.438708	0.757732	0.622321
	C65	C	0.501317	0.818866	0.385902
	C66	C	0.449302	0.665652	0.305039
	C67	C	0.628786	0.776707	0.555299
	C68	C	0.415072	0.699574	0.693942
	C69	C	0.526732	0.878942	0.445096
	C70	C	0.452483	0.610323	0.188316
	C71	C	0.686078	0.777271	0.655784
	C72	C	0.359588	0.702745	0.810242
	C73	C	0.527403	0.936237	0.344812
	H74	H	0.621921	0.571539	0.174908
	H75	H	0.626889	0.698251	1.001441
	H76	H	0.321420	0.872169	0.825632
	H77	H	0.448191	0.877394	-0.001089
	H78	H	0.616030	0.668560	0.379372
	H79	H	0.526392	0.702069	0.831284
	H80	H	0.418772	0.866301	0.622101
	H81	H	0.451938	0.776867	0.168523
	H82	H	0.400257	0.691967	0.338688
	H83	H	0.631282	0.796837	0.427345
	H84	H	0.441305	0.650539	0.660008
	H85	H	0.546918	0.881344	0.573036
	H86	H	0.406510	0.595701	0.132102
	H87	H	0.730985	0.798818	0.607972
	H88	H	0.344786	0.656752	0.865785
	H89	H	0.549084	0.981038	0.392761
	N90	N	0.523155	0.519733	0.010211
	N91	N	0.749568	0.749762	0.915900
	N92	N	0.268844	0.773501	0.988060
	N93	N	0.500015	0.999843	0.084854
	O94	O	0.577490	0.513552	-0.081000
	O95	O	0.263280	0.827332	1.081187
	O96	O	0.499166	1.054848	0.172146
	O97	O	0.804642	0.748792	0.828756
	C98	C	0.003637	0.253375	0.499677
	C99	C	-0.173200	0.264773	0.863328
	C100	C	0.001096	0.435759	0.180416
	C101	C	0.014504	0.076973	0.135059
	C102	C	0.186171	0.250357	0.819085
	C103	C	-0.151901	0.323082	0.789894
	C104	C	-0.027794	0.377924	0.121621
	C105	C	0.072944	0.098098	0.208399
	C106	C	0.128279	0.221468	0.877563
	C107	C	-0.096961	0.319000	0.672323
	C108	C	-0.026432	0.320266	0.221811
	C109	C	0.068986	0.152774	0.326695
	C110	C	0.070578	0.222985	0.777335
	C111	C	-0.061136	0.257194	0.622731
	C112	C	0.001294	0.318337	0.385799
	C113	C	0.007208	0.188608	0.376720
	C114	C	0.068703	0.250759	0.613445
	C115	C	-0.084756	0.199016	0.694281
	C116	C	0.026581	0.378429	0.445341
	C117	C	-0.051089	0.165249	0.304946
	C118	C	0.128802	0.276197	0.554358
	C119	C	-0.139602	0.202225	0.812557
	C120	C	0.027299	0.435754	0.345180
	C121	C	-0.048020	0.110564	0.186257
	C122	C	0.186166	0.276774	0.654601
	H123	H	-0.178172	0.371598	0.827084
	H124	H	-0.052073	0.377161	-0.000692
	H125	H	0.121447	0.071885	0.170670
	H126	H	0.127530	0.197094	0.999708
	H127	H	-0.081861	0.365659	0.620316
	H128	H	-0.048507	0.276568	0.168858
	H129	H	0.115768	0.168017	0.377869
	H130	H	0.026835	0.200908	0.830068
	H131	H	-0.058783	0.149947	0.659446
	H132	H	0.046724	0.380760	0.573338
	H133	H	-0.100127	0.191284	0.340006
	H134	H	0.131162	0.296483	0.426554
	H135	H	-0.154411	0.156136	0.867523
	H136	H	0.049004	0.480531	0.393195
	H137	H	-0.094161	0.095853	0.131151
	H138	H	0.230966	0.298527	0.606850
	N139	N	-0.230080	0.273270	0.991585
	N140	N	0.000054	0.499369	0.085115
	N141	N	0.022725	0.020347	0.006163
	N142	N	0.249831	0.248933	0.914478
	O143	O	-0.236235	0.327310	1.083998
	O144	O	0.077031	0.013644	-0.085233
	O145	O	0.304867	0.249117	0.827686
	O146	O	-0.000816	0.554416	0.172236
	C147	C	0.494087	0.244404	0.499998
	C148	C	0.310752	0.250403	0.183002
	C149	C	0.670962	0.233123	0.136471
	C150	C	0.499865	0.061126	0.816700
	C151	C	0.483191	0.420803	0.864722
	C152	C	0.369731	0.276562	0.121780
	C153	C	0.649784	0.174813	0.210151
	C154	C	0.525861	0.120119	0.878322
	C155	C	0.424765	0.399746	0.791161
	C156	C	0.427535	0.274366	0.221673
	C157	C	0.594973	0.178879	0.328106
	C158	C	0.523720	0.177902	0.778515
	C159	C	0.428725	0.345129	0.672678
	C160	C	0.429099	0.247022	0.386064
	C161	C	0.558999	0.240644	0.377364
	C162	C	0.496484	0.179480	0.613964
	C163	C	0.490489	0.309245	0.622788
	C164	C	0.368838	0.221915	0.445211
	C165	C	0.582415	0.298822	0.305299
	C166	C	0.471673	0.119171	0.554260
	C167	C	0.548785	0.332596	0.694602
	C168	C	0.311163	0.222460	0.345795
	C169	C	0.637264	0.295649	0.187031
	C170	C	0.472182	0.061509	0.653547
	C171	C	0.545721	0.387252	0.813385
	H172	H	0.371045	0.300279	-0.001166
	H173	H	0.676070	0.126307	0.172934
	H174	H	0.549433	0.121523	1.001486
	H175	H	0.376260	0.425931	0.828996
	H176	H	0.471876	0.294877	0.167313
	H177	H	0.579779	0.132175	0.379622
	H178	H	0.544100	0.222256	0.833173
	H179	H	0.381945	0.329954	0.621353
	H180	H	0.366418	0.201531	0.572923
	H181	H	0.556285	0.347855	0.339786
	H182	H	0.451481	0.116746	0.426297
	H183	H	0.597816	0.306515	0.659661
	H184	H	0.266193	0.201025	0.393601
	H185	H	0.651985	0.341729	0.131824
	H186	H	0.450931	0.016511	0.605328
	H187	H	0.591875	0.401902	0.868525
	N188	N	0.247455	0.250860	0.086361
	N189	N	0.727806	0.224638	0.008121
	N190	N	0.500095	-0.002185	0.913101
	N191	N	0.474853	0.477181	0.994293
	O192	O	0.192271	0.250604	0.172606
	O193	O	0.500861	-0.057341	0.826376
	O194	O	0.420947	0.483001	1.087354
	O195	O	0.733951	0.170590	-0.084258
