data_Molecule from CHK

_cell_length_a		20.992175
_cell_length_b		20.985920
_cell_length_c		27.406652
_cell_angle_alpha	90.037094
_cell_angle_beta	90.010673
_cell_angle_gamma	81.516292
_symmetry_space_group_name_H-M	'P 1'
_symmetry_Int_Tables_number		1

loop_
	_symmetry_equiv_pos_as_xyz
	x,y,z

loop_
	_atom_site_label
	_atom_site_type_symbol
	_atom_site_fract_x
	_atom_site_fract_y
	_atom_site_fract_z
	C0	C	-0.001431	0.749142	0.375098
	C1	C	0.010423	0.564691	0.454527
	C2	C	0.006526	0.915542	0.472532
	C3	C	-0.186171	0.760321	0.296081
	C4	C	0.164289	0.756561	0.277009
	C5	C	0.013201	0.621670	0.480199
	C6	C	-0.049268	0.911247	0.445794
	C7	C	-0.129353	0.763213	0.270288
	C8	C	0.160191	0.700936	0.303988
	C9	C	0.009535	0.680285	0.455378
	C10	C	-0.052277	0.858748	0.414875
	C11	C	-0.070662	0.759774	0.294986
	C12	C	0.107943	0.698138	0.335145
	C13	C	0.003706	0.684336	0.404526
	C14	C	-0.000718	0.808596	0.409897
	C15	C	-0.066347	0.753970	0.345826
	C16	C	0.057825	0.749732	0.340120
	C17	C	-0.000590	0.626662	0.379724
	C18	C	0.055193	0.814691	0.436419
	C19	C	-0.123888	0.749766	0.370774
	C20	C	0.063761	0.805506	0.313395
	C21	C	0.003239	0.567742	0.403934
	C22	C	0.058941	0.866732	0.467468
	C23	C	-0.182884	0.753360	0.346683
	C24	C	0.115556	0.809045	0.282105
	H25	H	0.019575	0.620602	0.519268
	H26	H	-0.090860	0.947809	0.449562
	H27	H	-0.130575	0.769515	0.231218
	H28	H	0.196676	0.659281	0.300202
	H29	H	0.010308	0.723385	0.476844
	H30	H	-0.095976	0.858071	0.394149
	H31	H	-0.027701	0.760609	0.273413
	H32	H	0.107433	0.654557	0.356036
	H33	H	-0.006887	0.627933	0.340480
	H34	H	0.096785	0.777757	0.432666
	H35	H	-0.122435	0.743629	0.410028
	H36	H	0.026875	0.847142	0.317154
	H37	H	0.000514	0.523717	0.384089
	H38	H	0.102324	0.870305	0.487871
	H39	H	-0.226796	0.750609	0.366622
	H40	H	0.118975	0.852299	0.261510
	N41	N	0.013876	0.501208	0.478298
	N42	N	0.013547	0.969810	0.505391
	N43	N	-0.249726	0.763319	0.272470
	N44	N	0.218211	0.763216	0.243782
	O45	O	0.039669	0.452099	0.454763
	O46	O	-0.298682	0.789928	0.295766
	O47	O	0.206177	0.797702	0.206012
	O48	O	0.048194	0.958023	0.543108
	C49	C	0.498489	0.748936	0.125010
	C50	C	0.489872	0.581093	0.029237
	C51	C	0.682495	0.741997	0.204395
	C52	C	0.330834	0.740052	0.220754
	C53	C	0.491088	0.932875	0.045517
	C54	C	0.546396	0.586534	0.054717
	C55	C	0.626122	0.736474	0.230027
	C56	C	0.336134	0.796594	0.195272
	C57	C	0.485593	0.876417	0.019931
	C58	C	0.549620	0.639438	0.085178
	C59	C	0.567577	0.738773	0.205267
	C60	C	0.388912	0.799850	0.164739
	C61	C	0.487882	0.817921	0.044738
	C62	C	0.497948	0.689466	0.090208
	C63	C	0.563308	0.744282	0.154404
	C64	C	0.439092	0.748303	0.159811
	C65	C	0.493639	0.813742	0.095591
	C66	C	0.442016	0.683221	0.063758
	C67	C	0.620769	0.748893	0.129469
	C68	C	0.433002	0.692361	0.186280
	C69	C	0.498209	0.871292	0.120483
	C70	C	0.438047	0.630736	0.033209
	C71	C	0.679533	0.746815	0.153654
	C72	C	0.380561	0.688302	0.216802
	C73	C	0.495979	0.930038	0.096259
	H74	H	0.588068	0.550108	0.050738
	H75	H	0.627535	0.729977	0.269080
	H76	H	0.299667	0.838231	0.199272
	H77	H	0.479094	0.877761	-0.019128
	H78	H	0.593472	0.640410	0.105652
	H79	H	0.524803	0.736475	0.226741
	H80	H	0.389941	0.843832	0.144457
	H81	H	0.485964	0.775029	0.023271
	H82	H	0.400452	0.720219	0.067367
	H83	H	0.619384	0.754588	0.090175
	H84	H	0.470085	0.650861	0.182703
	H85	H	0.504005	0.869990	0.159771
	H86	H	0.394718	0.627163	0.012738
	H87	H	0.723396	0.749786	0.133712
	H88	H	0.377098	0.644967	0.237283
	H89	H	0.498931	0.973965	0.116169
	N90	N	0.483964	0.527643	-0.004680
	N91	N	0.746129	0.738143	0.228004
	N92	N	0.277454	0.734079	0.254668
	N93	N	0.487113	0.996422	0.021775
	O94	O	0.448734	0.539627	-0.042057
	O95	O	0.289536	0.698949	0.292076
	O96	O	0.461359	1.045494	0.045332
	O97	O	0.794948	0.711417	0.204645
	C98	C	-0.001119	0.249179	0.625121
	C99	C	-0.167362	0.241377	0.722541
	C100	C	-0.008277	0.433422	0.546065
	C101	C	-0.008992	0.083113	0.527355
	C102	C	0.183072	0.241283	0.704419
	C103	C	-0.163069	0.297180	0.695831
	C104	C	-0.013884	0.377089	0.520348
	C105	C	0.046821	0.087389	0.554073
	C106	C	0.126676	0.235861	0.730050
	C107	C	-0.110511	0.300227	0.665025
	C108	C	-0.011521	0.318478	0.545008
	C109	C	0.049807	0.139796	0.585088
	C110	C	0.068079	0.238514	0.705320
	C111	C	-0.060415	0.248617	0.660022
	C112	C	-0.005776	0.314087	0.595852
	C113	C	-0.001797	0.189879	0.590179
	C114	C	0.063772	0.244250	0.654471
	C115	C	-0.066583	0.192654	0.686437
	C116	C	-0.001314	0.371549	0.620895
	C117	C	-0.057711	0.183823	0.563648
	C118	C	0.121251	0.248774	0.629532
	C119	C	-0.118587	0.188929	0.717469
	C120	C	-0.003443	0.430381	0.596804
	C121	C	-0.061439	0.131868	0.532509
	C122	C	0.180072	0.246364	0.653693
	H123	H	-0.199661	0.338756	0.699563
	H124	H	-0.020493	0.378588	0.481303
	H125	H	0.088440	0.050877	0.550223
	H126	H	0.128123	0.229177	0.769086
	H127	H	-0.109979	0.343793	0.644114
	H128	H	-0.013859	0.275744	0.523456
	H129	H	0.093521	0.140453	0.605800
	H130	H	0.025308	0.236308	0.726815
	H131	H	-0.029721	0.151007	0.682627
	H132	H	0.004390	0.370090	0.660190
	H133	H	-0.099333	0.220705	0.567484
	H134	H	0.119842	0.254638	0.590253
	H135	H	-0.122184	0.145520	0.737819
	H136	H	-0.000486	0.474229	0.616816
	H137	H	-0.104831	0.128310	0.512113
	H138	H	0.223944	0.249262	0.633742
	N139	N	-0.221658	0.234290	0.755292
	N140	N	-0.012019	0.497069	0.522504
	N141	N	-0.016005	0.028873	0.494466
	N142	N	0.246704	0.236950	0.728090
	O143	O	-0.209926	0.199588	0.792978
	O144	O	-0.050665	0.040670	0.456758
	O145	O	0.295611	0.211132	0.704405
	O146	O	-0.038614	0.545960	0.545868
	C147	C	0.499249	0.248538	0.874899
	C148	C	0.510774	0.063952	0.954118
	C149	C	0.506656	0.414465	0.972921
	C150	C	0.314500	0.259801	0.795915
	C151	C	0.665044	0.256379	0.776998
	C152	C	0.513733	0.120852	0.979842
	C153	C	0.450965	0.410202	0.946049
	C154	C	0.371273	0.262892	0.770116
	C155	C	0.660826	0.200569	0.803716
	C156	C	0.510223	0.179493	0.955080
	C157	C	0.448178	0.357899	0.914896
	C158	C	0.429977	0.259448	0.794797
	C159	C	0.608541	0.197627	0.834804
	C160	C	0.504378	0.183652	0.904234
	C161	C	0.499855	0.307889	0.909822
	C162	C	0.434338	0.253412	0.845622
	C163	C	0.558498	0.249258	0.839951
	C164	C	0.499975	0.126044	0.879371
	C165	C	0.555696	0.313999	0.936429
	C166	C	0.376837	0.249018	0.870570
	C167	C	0.564506	0.305182	0.813432
	C168	C	0.503640	0.067094	0.903524
	C169	C	0.559224	0.365851	0.967716
	C170	C	0.317832	0.252632	0.846499
	C171	C	0.616357	0.308876	0.782229
	H172	H	0.520110	0.119696	1.018911
	H173	H	0.409254	0.446597	0.949923
	H174	H	0.369983	0.269357	0.731061
	H175	H	0.697305	0.158928	0.799804
	H176	H	0.511101	0.222528	0.976601
	H177	H	0.404536	0.357246	0.894095
	H178	H	0.472914	0.260476	0.773233
	H179	H	0.607957	0.153915	0.855518
	H180	H	0.493683	0.127395	0.840127
	H181	H	0.597383	0.277195	0.932587
	H182	H	0.378328	0.242725	0.909810
	H183	H	0.527654	0.346824	0.817310
	H184	H	0.500788	0.023126	0.883640
	H185	H	0.602526	0.369401	0.988228
	H186	H	0.273954	0.249728	0.866440
	H187	H	0.619867	0.352271	0.761837
	N188	N	0.513904	0.000490	0.977870
	N189	N	0.513271	0.468440	1.006158
	N190	N	0.250938	0.262756	0.772339
	N191	N	0.719153	0.263149	0.743973
	O192	O	0.539556	-0.048708	0.954375
	O193	O	0.201973	0.289224	0.795692
	O194	O	0.707533	0.298547	0.706646
	O195	O	0.547866	0.456486	1.043889
