data_Molecule from CHK

_cell_length_a		19.832524
_cell_length_b		19.799609
_cell_length_c		15.288232
_cell_angle_alpha	89.336163
_cell_angle_beta	91.888333
_cell_angle_gamma	82.086121
_symmetry_space_group_name_H-M	'P 1'
_symmetry_Int_Tables_number		1

loop_
	_symmetry_equiv_pos_as_xyz
	x,y,z

loop_
	_atom_site_label
	_atom_site_type_symbol
	_atom_site_fract_x
	_atom_site_fract_y
	_atom_site_fract_z
	C0	C	0.003568	0.760911	0.749483
	C1	C	0.012589	0.574349	0.912761
	C2	C	0.003845	0.945324	0.909283
	C3	C	-0.185256	0.762621	0.587785
	C4	C	0.184421	0.760235	0.588313
	C5	C	-0.044265	0.624498	0.911346
	C6	C	0.005348	0.948593	0.818174
	C7	C	-0.134507	0.706259	0.590386
	C8	C	0.189190	0.763830	0.679358
	C9	C	-0.045529	0.683095	0.859309
	C10	C	0.004643	0.889684	0.769061
	C11	C	-0.075172	0.707383	0.641787
	C12	C	0.131340	0.763631	0.728864
	C13	C	0.008719	0.693842	0.806682
	C14	C	0.003190	0.825554	0.808287
	C15	C	-0.064338	0.763485	0.692948
	C16	C	0.066804	0.760518	0.690103
	C17	C	0.063330	0.640908	0.805177
	C18	C	0.005361	0.823061	0.899953
	C19	C	-0.117665	0.817754	0.693158
	C20	C	0.062679	0.760781	0.598465
	C21	C	0.065388	0.582007	0.856959
	C22	C	0.005868	0.881605	0.950041
	C23	C	-0.177216	0.817495	0.641819
	C24	C	0.120172	0.760837	0.547974
	H25	H	-0.087792	0.617674	0.949345
	H26	H	0.006949	0.997503	0.786782
	H27	H	-0.141312	0.661240	0.553889
	H28	H	0.238452	0.766548	0.710432
	H29	H	-0.090253	0.721323	0.858921
	H30	H	0.005678	0.893482	0.698384
	H31	H	-0.036432	0.663049	0.642935
	H32	H	0.136301	0.766220	0.799480
	H33	H	0.105008	0.644428	0.762323
	H34	H	0.007795	0.774764	0.934412
	H35	H	-0.113933	0.861024	0.734599
	H36	H	0.013887	0.761868	0.564419
	H37	H	0.107776	0.541482	0.855012
	H38	H	0.009139	0.877078	1.020506
	H39	H	-0.217960	0.859742	0.642826
	H40	H	0.114353	0.762551	0.477532
	N41	N	0.016161	0.510417	0.964212
	N42	N	0.007695	1.008293	0.958740
	N43	N	-0.249961	0.764120	0.536868
	N44	N	0.246720	0.762595	0.538830
	O45	O	0.045639	0.456108	0.931699
	O46	O	-0.303195	0.797004	0.567258
	O47	O	0.292038	0.795154	0.571075
	O48	O	0.040584	1.052631	0.926758
	C49	C	0.494985	0.736726	0.250372
	C50	C	0.490113	0.553650	0.089227
	C51	C	0.686050	0.736458	0.407047
	C52	C	0.316020	0.731621	0.413510
	C53	C	0.487591	0.925638	0.092109
	C54	C	0.491173	0.549680	0.180442
	C55	C	0.634280	0.791838	0.406989
	C56	C	0.310291	0.730861	0.322328
	C57	C	0.543392	0.874402	0.091027
	C58	C	0.493386	0.608178	0.229928
	C59	C	0.574401	0.790278	0.356891
	C60	C	0.367539	0.732964	0.272206
	C61	C	0.544072	0.815135	0.141558
	C62	C	0.495004	0.672407	0.191065
	C63	C	0.563213	0.733979	0.306315
	C64	C	0.432166	0.736628	0.310369
	C65	C	0.489685	0.804117	0.193793
	C66	C	0.492503	0.675315	0.099406
	C67	C	0.616529	0.679710	0.305773
	C68	C	0.436910	0.735942	0.401997
	C69	C	0.434984	0.856950	0.195400
	C70	C	0.490548	0.617168	0.048902
	C71	C	0.676823	0.680541	0.355439
	C72	C	0.380053	0.733885	0.453137
	C73	C	0.433578	0.916651	0.145310
	H74	H	0.489671	0.500664	0.211599
	H75	H	0.641044	0.836898	0.443416
	H76	H	0.260917	0.727964	0.291678
	H77	H	0.587004	0.881258	0.053208
	H78	H	0.493019	0.604030	0.300626
	H79	H	0.535175	0.834161	0.357091
	H80	H	0.362010	0.731492	0.201552
	H81	H	0.588460	0.776541	0.140986
	H82	H	0.490640	0.723694	0.065292
	H83	H	0.612321	0.636153	0.265017
	H84	H	0.485789	0.735681	0.435544
	H85	H	0.392946	0.852870	0.237468
	H86	H	0.487227	0.622034	-0.021530
	H87	H	0.717515	0.638250	0.354337
	H88	H	0.386399	0.731978	0.523528
	H89	H	0.391117	0.957097	0.147289
	N90	N	0.487619	0.490435	0.039860
	N91	N	0.750443	0.734413	0.458774
	N92	N	0.253913	0.729396	0.463397
	N93	N	0.483705	0.989326	0.040111
	O94	O	0.455191	0.445670	0.071785
	O95	O	0.208119	0.697581	0.430777
	O96	O	0.453201	1.043506	0.071818
	O97	O	0.803741	0.701428	0.428620
	C98	C	-0.009164	0.259201	0.250097
	C99	C	-0.189648	0.264723	0.412863
	C100	C	-0.007970	0.448682	0.095238
	C101	C	-0.018608	0.078799	0.085286
	C102	C	0.183555	0.243522	0.406869
	C103	C	-0.195563	0.265865	0.321649
	C104	C	0.045508	0.395079	0.092537
	C105	C	-0.020635	0.074460	0.176300
	C106	C	0.134812	0.301380	0.409538
	C107	C	-0.137730	0.264118	0.271709
	C108	C	0.043843	0.335854	0.142466
	C109	C	-0.017534	0.132236	0.226875
	C110	C	0.074388	0.304949	0.359105
	C111	C	-0.072273	0.261983	0.310119
	C112	C	-0.010841	0.327108	0.195355
	C113	C	-0.012896	0.196285	0.189271
	C114	C	0.059593	0.251397	0.305740
	C115	C	-0.067460	0.259385	0.401742
	C116	C	-0.062991	0.382330	0.198772
	C117	C	-0.015096	0.200169	0.097663
	C118	C	0.110112	0.194707	0.302308
	C119	C	-0.124910	0.261201	0.452721
	C120	C	-0.061977	0.441997	0.149478
	C121	C	-0.018043	0.142721	0.046086
	C122	C	0.170914	0.190441	0.352130
	H123	H	-0.245642	0.267875	0.290860
	H124	H	0.089227	0.399877	0.053946
	H125	H	-0.024238	0.025551	0.206546
	H126	H	0.144438	0.344376	0.448440
	H127	H	-0.143417	0.263997	0.200994
	H128	H	0.086303	0.295189	0.140227
	H129	H	-0.018766	0.127553	0.297465
	H130	H	0.037620	0.350706	0.361301
	H131	H	-0.018237	0.255389	0.435389
	H132	H	-0.104955	0.380245	0.241590
	H133	H	-0.015308	0.248719	0.064509
	H134	H	0.103361	0.153171	0.259106
	H135	H	-0.118965	0.261221	0.523128
	H136	H	-0.102682	0.484117	0.152803
	H137	H	-0.020910	0.148306	-0.024282
	H138	H	0.209376	0.146311	0.348821
	N139	N	-0.252424	0.266107	0.462334
	N140	N	-0.010374	0.512364	0.043510
	N141	N	-0.023424	0.016468	0.034842
	N142	N	0.248194	0.235746	0.458911
	O143	O	-0.306445	0.300325	0.430175
	O144	O	-0.056460	-0.027891	0.066548
	O145	O	0.300170	0.202121	0.426367
	O146	O	-0.040438	0.566845	0.075090
	C147	C	0.505849	0.238800	0.749924
	C148	C	0.314984	0.256271	0.589195
	C149	C	0.686602	0.232995	0.587543
	C150	C	0.507263	0.051157	0.909216
	C151	C	0.515136	0.419605	0.914100
	C152	C	0.362449	0.197280	0.589031
	C153	C	0.692386	0.232097	0.678760
	C154	C	0.452415	0.103505	0.909445
	C155	C	0.517047	0.423796	0.823068
	C156	C	0.422441	0.193182	0.640456
	C157	C	0.634456	0.234118	0.728571
	C158	C	0.453307	0.162302	0.858363
	C159	C	0.514031	0.365897	0.772697
	C160	C	0.437230	0.246612	0.694041
	C161	C	0.569059	0.236062	0.690033
	C162	C	0.507739	0.171077	0.805044
	C163	C	0.509537	0.301886	0.810520
	C164	C	0.386784	0.303372	0.697374
	C165	C	0.564407	0.238211	0.598398
	C166	C	0.560037	0.115993	0.801685
	C167	C	0.511882	0.298163	0.902133
	C168	C	0.326626	0.308321	0.646152
	C169	C	0.621932	0.236314	0.547551
	C170	C	0.559979	0.056959	0.852546
	C171	C	0.514806	0.355717	0.953505
	H172	H	0.352533	0.154308	0.550260
	H173	H	0.742429	0.230116	0.709643
	H174	H	0.408780	0.098384	0.948057
	H175	H	0.520470	0.472679	0.792637
	H176	H	0.458566	0.146880	0.639536
	H177	H	0.640080	0.234087	0.799298
	H178	H	0.410179	0.202327	0.859374
	H179	H	0.515181	0.370457	0.702088
	H180	H	0.393279	0.344643	0.741118
	H181	H	0.515256	0.241994	0.564611
	H182	H	0.601612	0.117883	0.758182
	H183	H	0.512210	0.249669	0.935468
	H184	H	0.288222	0.352503	0.649393
	H185	H	0.616111	0.236039	0.477139
	H186	H	0.600803	0.014951	0.849258
	H187	H	0.517788	0.350264	1.023889
	N188	N	0.249962	0.263586	0.537998
	N189	N	0.749415	0.231563	0.538140
	N190	N	0.509402	-0.012806	0.960293
	N191	N	0.519737	0.482022	0.964477
	O192	O	0.198086	0.297133	0.570795
	O193	O	0.539541	-0.067174	0.928587
	O194	O	0.551547	0.527056	0.932027
	O195	O	0.803419	0.197359	0.570349
