data_Molecule from CHK

_cell_length_a		19.037957
_cell_length_b		19.037603
_cell_length_c		4.985183
_cell_angle_alpha	90.005826
_cell_angle_beta	90.012589
_cell_angle_gamma	97.378022
_symmetry_space_group_name_H-M	'P 1'
_symmetry_Int_Tables_number		1

loop_
	_symmetry_equiv_pos_as_xyz
	x,y,z

loop_
	_atom_site_label
	_atom_site_type_symbol
	_atom_site_fract_x
	_atom_site_fract_y
	_atom_site_fract_z
	C0	C	-0.000822	0.748884	0.624626
	C1	C	-0.016214	0.555196	1.177293
	C2	C	0.014189	0.941050	1.183433
	C3	C	-0.194513	0.733634	0.071902
	C4	C	0.191223	0.763963	0.065487
	C5	C	0.047470	0.585097	1.066962
	C6	C	-0.049309	0.912566	1.067507
	C7	C	-0.164519	0.797306	0.182146
	C8	C	0.162748	0.700442	0.181181
	C9	C	0.051208	0.643632	0.888831
	C10	C	-0.053034	0.854072	0.889048
	C11	C	-0.105973	0.800979	0.360245
	C12	C	0.104330	0.696706	0.359931
	C13	C	-0.006121	0.677429	0.807160
	C14	C	0.004346	0.820304	0.807542
	C15	C	-0.072233	0.743600	0.441735
	C16	C	0.070592	0.754081	0.441746
	C17	C	-0.069510	0.636842	0.881982
	C18	C	0.067627	0.861260	0.881489
	C19	C	-0.113056	0.680247	0.367741
	C20	C	0.111524	0.817375	0.367886
	C21	C	-0.074939	0.576969	1.051937
	C22	C	0.072917	0.920775	1.053234
	C23	C	-0.172906	0.674880	0.197600
	C24	C	0.170995	0.822675	0.196005
	H25	H	0.095215	0.563253	1.118751
	H26	H	-0.096965	0.934689	1.118304
	H27	H	-0.186295	0.845084	0.130324
	H28	H	0.184797	0.652766	0.130036
	H29	H	0.102669	0.665067	0.816579
	H30	H	-0.104495	0.832804	0.816048
	H31	H	-0.084402	0.852432	0.432255
	H32	H	0.083065	0.645235	0.432754
	H33	H	-0.118375	0.653251	0.812552
	H34	H	0.116601	0.845236	0.811642
	H35	H	-0.096785	0.631340	0.437407
	H36	H	0.095504	0.866354	0.437783
	H37	H	-0.126073	0.547929	1.098289
	H38	H	0.123977	0.950043	1.099174
	H39	H	-0.202013	0.623772	0.151196
	H40	H	0.200262	0.873738	0.150195
	N41	N	-0.027363	0.504880	1.414489
	N42	N	0.025238	0.992751	1.416048
	N43	N	-0.244474	0.722523	-0.166422
	N44	N	0.242592	0.775120	-0.168182
	O45	O	-0.090905	0.480228	1.465629
	O46	O	-0.269926	0.659104	-0.215754
	O47	O	0.267313	0.838670	-0.218808
	O48	O	0.088709	1.018010	1.465581
	C49	C	0.499127	0.749243	0.875017
	C50	C	0.483715	0.555466	0.322585
	C51	C	0.691168	0.764155	1.434451
	C52	C	0.305489	0.733740	1.427853
	C53	C	0.514060	0.941183	0.315369
	C54	C	0.547403	0.585416	0.432827
	C55	C	0.662636	0.700656	1.318681
	C56	C	0.335382	0.797443	1.317656
	C57	C	0.450569	0.912790	0.431483
	C58	C	0.551149	0.644084	0.610372
	C59	C	0.604132	0.696966	1.140244
	C60	C	0.393883	0.801200	1.139397
	C61	C	0.446867	0.854434	0.610558
	C62	C	0.493804	0.677828	0.692148
	C63	C	0.570585	0.754408	1.057806
	C64	C	0.427747	0.743897	1.057982
	C65	C	0.504247	0.820659	0.692129
	C66	C	0.430428	0.637055	0.618129
	C67	C	0.611662	0.817657	1.131459
	C68	C	0.387064	0.680497	1.132164
	C69	C	0.567523	0.861544	0.617839
	C70	C	0.425002	0.577169	0.448179
	C71	C	0.671074	0.822897	1.303740
	C72	C	0.327198	0.675039	1.302140
	C73	C	0.572802	0.920970	0.445713
	H74	H	0.595144	0.563552	0.381203
	H75	H	0.684642	0.652957	1.369802
	H76	H	0.313534	0.845178	1.369541
	H77	H	0.402890	0.934836	0.380361
	H78	H	0.602582	0.665364	0.683451
	H79	H	0.582971	0.645533	1.066663
	H80	H	0.415310	0.852668	1.067213
	H81	H	0.395405	0.833232	0.683633
	H82	H	0.381545	0.653366	0.687776
	H83	H	0.595791	0.866672	1.061309
	H84	H	0.403460	0.631629	1.062702
	H85	H	0.616504	0.845506	0.687563
	H86	H	0.373880	0.548063	0.402002
	H87	H	0.700382	0.873937	1.349703
	H88	H	0.298155	0.623901	1.348447
	H89	H	0.623861	0.950199	0.399593
	N90	N	0.472562	0.505143	0.085382
	N91	N	0.742211	0.775248	1.669217
	N92	N	0.255526	0.722526	1.666073
	N93	N	0.525178	0.992204	0.080609
	O94	O	0.409029	0.480429	0.034265
	O95	O	0.230230	0.659066	1.715384
	O96	O	0.588616	1.017630	0.031713
	O97	O	0.767720	0.838673	1.718042
	C98	C	-0.001026	0.248929	0.374957
	C99	C	-0.193187	0.233697	0.933695
	C100	C	0.014068	0.440875	-0.185162
	C101	C	-0.016169	0.056689	-0.183709
	C102	C	0.190994	0.264057	0.935053
	C103	C	-0.164884	0.297200	0.817549
	C104	C	-0.049451	0.412352	-0.069697
	C105	C	0.047327	0.085094	-0.067622
	C106	C	0.162449	0.200536	0.819511
	C107	C	-0.106393	0.300987	0.639129
	C108	C	-0.053173	0.353915	0.109004
	C109	C	0.051067	0.143522	0.111157
	C110	C	0.103971	0.196797	0.640943
	C111	C	-0.072448	0.243695	0.557934
	C112	C	0.004196	0.320263	0.191454
	C113	C	-0.006246	0.177432	0.192312
	C114	C	0.070385	0.254174	0.558137
	C115	C	-0.113383	0.180369	0.631510
	C116	C	0.067456	0.361376	0.118284
	C117	C	-0.069554	0.136561	0.118105
	C118	C	0.111397	0.317442	0.631935
	C119	C	-0.172893	0.175006	0.803244
	C120	C	0.072752	0.420787	-0.053976
	C121	C	-0.074878	0.077016	-0.053532
	C122	C	0.170828	0.322744	0.804171
	H123	H	-0.187073	0.344825	0.868301
	H124	H	-0.097139	0.434373	-0.120902
	H125	H	0.094974	0.062949	-0.118387
	H126	H	0.184492	0.152852	0.870569
	H127	H	-0.085591	0.352424	0.564775
	H128	H	-0.104607	0.332870	0.182614
	H129	H	0.102521	0.164593	0.184658
	H130	H	0.082929	0.145356	0.567274
	H131	H	-0.097287	0.131412	0.561726
	H132	H	0.116456	0.345487	0.188533
	H133	H	-0.118509	0.152658	0.187808
	H134	H	0.095480	0.366431	0.561762
	H135	H	-0.202126	0.123933	0.849141
	H136	H	0.123806	0.450103	-0.099556
	H137	H	-0.125940	0.047755	-0.099468
	H138	H	0.200132	0.373805	0.849827
	N139	N	-0.244508	0.222583	1.167395
	N140	N	0.025241	0.491945	-0.419782
	N141	N	-0.027235	0.004987	-0.416304
	N142	N	0.242428	0.275198	1.168622
	O143	O	-0.270411	0.159210	1.215027
	O144	O	-0.090711	-0.020246	-0.465869
	O145	O	0.267210	0.338740	1.219197
	O146	O	0.088693	0.517360	-0.468481
	C147	C	0.498965	0.249209	0.125372
	C148	C	0.305199	0.233828	-0.427147
	C149	C	0.690964	0.264168	-0.433916
	C150	C	0.483598	0.055542	0.678054
	C151	C	0.513998	0.441231	0.684833
	C152	C	0.335129	0.297514	-0.316786
	C153	C	0.662583	0.200680	-0.317774
	C154	C	0.547279	0.085469	0.567808
	C155	C	0.450474	0.412692	0.569248
	C156	C	0.393676	0.301246	-0.138648
	C157	C	0.604158	0.196962	-0.139049
	C158	C	0.550986	0.143998	0.389684
	C159	C	0.446764	0.354297	0.390320
	C160	C	0.427485	0.243913	-0.057122
	C161	C	0.570363	0.254336	-0.057573
	C162	C	0.493647	0.177809	0.308255
	C163	C	0.504170	0.320650	0.308238
	C164	C	0.386865	0.180528	-0.131914
	C165	C	0.611265	0.317618	-0.131719
	C166	C	0.430271	0.137056	0.382292
	C167	C	0.567440	0.361690	0.381858
	C168	C	0.326968	0.175101	-0.301826
	C169	C	0.670722	0.322906	-0.303659
	C170	C	0.424866	0.077202	0.552351
	C171	C	0.572715	0.421123	0.554022
	H172	H	0.313274	0.345258	-0.368495
	H173	H	0.684698	0.153026	-0.368707
	H174	H	0.595035	0.063646	0.619595
	H175	H	0.402781	0.434683	0.620578
	H176	H	0.415100	0.352702	-0.066217
	H177	H	0.582950	0.145495	-0.066014
	H178	H	0.602443	0.165494	0.317618
	H179	H	0.395294	0.332960	0.317613
	H180	H	0.403257	0.131659	-0.062462
	H181	H	0.595224	0.366592	-0.061965
	H182	H	0.381379	0.153376	0.312678
	H183	H	0.616436	0.345768	0.311754
	H184	H	0.297911	0.123969	-0.348202
	H185	H	0.699954	0.373964	-0.349797
	H186	H	0.373745	0.048126	0.598675
	H187	H	0.623765	0.450411	0.599991
	N188	N	0.254848	0.222683	-0.664300
	N189	N	0.742269	0.275245	-0.667688
	N190	N	0.472454	0.005599	0.916361
	N191	N	0.525158	0.492282	0.919564
	O192	O	0.230193	0.159138	-0.715488
	O193	O	0.409021	-0.019765	0.965771
	O194	O	0.588604	0.517735	0.968303
	O195	O	0.768192	0.338614	-0.715320
