data_Molecule from CHK

_cell_length_a		31.538040
_cell_length_b		32.115428
_cell_length_c		20.844846
_cell_angle_alpha	89.481845
_cell_angle_beta	92.188917
_cell_angle_gamma	88.046042
_symmetry_space_group_name_H-M	'P 1'
_symmetry_Int_Tables_number		1

loop_
	_symmetry_equiv_pos_as_xyz
	x,y,z

loop_
	_atom_site_label
	_atom_site_type_symbol
	_atom_site_fract_x
	_atom_site_fract_y
	_atom_site_fract_z
	C0	C	0.005199	0.740779	0.755351
	C1	C	-0.008533	0.630740	0.882762
	C2	C	0.011829	0.859602	0.862370
	C3	C	-0.107463	0.740632	0.620783
	C4	C	0.125581	0.733897	0.651283
	C5	C	-0.041283	0.660906	0.872199
	C6	C	0.021815	0.856600	0.797613
	C7	C	-0.081430	0.704948	0.632815
	C8	C	0.124733	0.740358	0.717645
	C9	C	-0.036390	0.695195	0.831856
	C10	C	0.019251	0.819001	0.764945
	C11	C	-0.046302	0.705587	0.675509
	C12	C	0.086578	0.742403	0.749380
	C13	C	0.001473	0.701648	0.800492
	C14	C	0.007338	0.782159	0.795092
	C15	C	-0.035009	0.741780	0.708304
	C16	C	0.047208	0.737807	0.716990
	C17	C	0.033549	0.670615	0.809573
	C18	C	-0.000715	0.784969	0.860617
	C19	C	-0.061666	0.777129	0.697132
	C20	C	0.048195	0.732116	0.650457
	C21	C	0.028851	0.636095	0.849610
	C22	C	0.001432	0.822600	0.893578
	C23	C	-0.097016	0.776703	0.654666
	C24	C	0.086256	0.730236	0.618252
	H25	H	-0.070921	0.656955	0.895872
	H26	H	0.031284	0.884429	0.772866
	H27	H	-0.089278	0.676427	0.608296
	H28	H	0.154597	0.744036	0.744175
	H29	H	-0.062570	0.717645	0.824026
	H30	H	0.026792	0.817973	0.714669
	H31	H	-0.027018	0.677349	0.684046
	H32	H	0.087054	0.747807	0.800669
	H33	H	0.062885	0.672971	0.784804
	H34	H	-0.008125	0.757266	0.887198
	H35	H	-0.055065	0.805674	0.722158
	H36	H	0.018783	0.729493	0.622634
	H37	H	0.055061	0.613573	0.856204
	H38	H	-0.004122	0.822934	0.944550
	H39	H	-0.115980	0.805174	0.646750
	H40	H	0.085232	0.724951	0.566971
	N41	N	-0.014643	0.596217	0.922832
	N42	N	0.015673	0.897812	0.893913
	N43	N	-0.143023	0.738342	0.578507
	N44	N	0.164593	0.733467	0.620966
	C45	C	0.288391	0.745241	0.471543
	C46	C	0.209680	0.747590	0.532983
	C47	C	0.252201	0.765227	0.442389
	C48	C	0.245830	0.727468	0.562034
	C49	C	0.213593	0.766330	0.472407
	C50	C	0.284403	0.726233	0.531906
	H51	H	0.311969	0.710601	0.555027
	H52	H	0.186017	0.781917	0.449241
	H53	H	0.242985	0.712841	0.608696
	H54	H	0.255031	0.779826	0.395700
	C55	C	0.329425	0.743936	0.439534
	H56	H	0.355701	0.726941	0.465406
	C57	C	0.168607	0.748831	0.564855
	H58	H	0.141920	0.764411	0.537835
	C59	C	0.714611	0.752873	0.453732
	C60	C	0.785326	0.756610	0.541437
	C61	C	0.711859	0.775208	0.511162
	C62	C	0.787997	0.734046	0.484212
	C63	C	0.746525	0.777143	0.554101
	C64	C	0.753390	0.732279	0.441121
	H65	H	0.756028	0.714759	0.397194
	H66	H	0.743841	0.794544	0.598137
	H67	H	0.817825	0.718045	0.474244
	H68	H	0.681984	0.791070	0.521282
	C69	C	0.677706	0.750751	0.408132
	H70	H	0.683036	0.733311	0.363937
	C71	C	0.822121	0.758560	0.587256
	H72	H	0.817382	0.777733	0.629913
	C73	C	-0.012213	0.454692	0.037468
	C74	C	-0.005425	0.523582	-0.047186
	C75	C	0.004731	0.449558	-0.023433
	C76	C	-0.022994	0.528606	0.013304
	C77	C	0.008164	0.483311	-0.064886
	C78	C	-0.026235	0.494884	0.054886
	H79	H	-0.039606	0.499385	0.101534
	H80	H	0.021557	0.478815	-0.111525
	H81	H	-0.033694	0.559575	0.027145
	H82	H	0.015448	0.418597	-0.037293
	C83	C	-0.014782	0.419012	0.082294
	H84	H	-0.027113	0.426285	0.129604
	C85	C	-0.000899	0.559571	-0.090775
	H86	H	0.014592	0.552891	-0.136041
	C87	C	0.003953	0.026434	0.035259
	C88	C	-0.005084	-0.050241	-0.029477
	C89	C	-0.031079	0.001585	0.045133
	C90	C	0.029765	-0.025223	-0.039752
	C91	C	-0.035462	-0.036062	0.013600
	C92	C	0.034303	0.012278	-0.007876
	H93	H	0.061437	0.031124	-0.016275
	H94	H	-0.062647	-0.054858	0.021880
	H95	H	0.053277	-0.035933	-0.073051
	H96	H	-0.054664	0.012383	0.078254
	C97	C	0.008769	0.066356	0.069049
	H98	H	0.038002	0.082842	0.060470
	C99	C	-0.009884	-0.090136	-0.063352
	H100	H	-0.037071	-0.108535	-0.050418
	C101	C	0.491886	0.759192	0.247218
	C102	C	0.372669	0.761164	0.354148
	C103	C	0.500486	0.870544	0.120535
	C104	C	0.487697	0.642364	0.134675
	C105	C	0.606163	0.766280	0.377551
	C106	C	0.381716	0.793953	0.312510
	C107	C	0.494671	0.830825	0.094782
	C108	C	0.522821	0.650400	0.175662
	C109	C	0.565486	0.764257	0.402045
	C110	C	0.419183	0.793972	0.278914
	C111	C	0.492223	0.795489	0.133783
	C112	C	0.524555	0.686971	0.211427
	C113	C	0.529290	0.761882	0.361720
	C114	C	0.449494	0.761078	0.284589
	C115	C	0.494554	0.797869	0.200886
	C116	C	0.491588	0.717401	0.208476
	C117	C	0.531727	0.760744	0.294756
	C118	C	0.439118	0.727264	0.323394
	C119	C	0.500299	0.837615	0.226517
	C120	C	0.455599	0.707980	0.170432
	C121	C	0.572425	0.763722	0.270481
	C122	C	0.401861	0.727121	0.357453
	C123	C	0.502813	0.873114	0.187832
	C124	C	0.453619	0.671597	0.134601
	C125	C	0.608814	0.765875	0.310456
	H126	H	0.358827	0.819836	0.307013
	H127	H	0.492380	0.827935	0.042969
	H128	H	0.549031	0.627850	0.181030
	H129	H	0.562552	0.764882	0.453701
	H130	H	0.424249	0.819869	0.246916
	H131	H	0.488891	0.765625	0.110963
	H132	H	0.551962	0.691273	0.243119
	H133	H	0.498677	0.761557	0.383319
	H134	H	0.460964	0.700449	0.326517
	H135	H	0.502721	0.840528	0.278303
	H136	H	0.428669	0.729918	0.168860
	H137	H	0.575281	0.764636	0.218813
	H138	H	0.395178	0.699748	0.385528
	H139	H	0.506382	0.902794	0.211177
	H140	H	0.425342	0.665473	0.105442
	H141	H	0.639317	0.768732	0.288959
	N142	N	0.334216	0.762447	0.385941
	N143	N	0.501015	0.904567	0.078054
	N144	N	0.483341	0.606404	0.097745
	N145	N	0.641541	0.767282	0.420354
	C146	C	-0.004948	0.238683	0.241611
	C147	C	-0.014909	0.118578	0.138787
	C148	C	0.117806	0.247086	0.352720
	C149	C	-0.116533	0.239635	0.366013
	C150	C	-0.003981	0.347978	0.109503
	C151	C	0.023979	0.130502	0.166722
	C152	C	0.079903	0.240137	0.383872
	C153	C	-0.107706	0.274665	0.328548
	C154	C	-0.013231	0.308309	0.086367
	C155	C	0.027516	0.168197	0.199131
	C156	C	0.041130	0.237607	0.349511
	C157	C	-0.072745	0.274737	0.289249
	C158	C	-0.014069	0.273692	0.127323
	C159	C	-0.007080	0.196407	0.204186
	C160	C	0.037967	0.240824	0.282407
	C161	C	-0.044141	0.240517	0.286123
	C162	C	-0.006261	0.276868	0.193704
	C163	C	-0.045796	0.184263	0.175985
	C164	C	0.075880	0.247940	0.251624
	C165	C	-0.053032	0.205735	0.323875
	C166	C	0.003138	0.316625	0.216530
	C167	C	-0.049687	0.146529	0.143986
	C168	C	0.114656	0.250613	0.285542
	C169	C	-0.087808	0.205419	0.363215
	C170	C	0.003893	0.351389	0.175980
	H171	H	0.051506	0.109449	0.165284
	H172	H	0.079801	0.237029	0.435567
	H173	H	-0.128030	0.302461	0.329264
	H174	H	-0.019522	0.304845	0.035213
	H175	H	0.057867	0.175197	0.221608
	H176	H	0.012835	0.233162	0.376099
	H177	H	-0.068140	0.302073	0.260020
	H178	H	-0.020624	0.243712	0.106686
	H179	H	-0.073481	0.204928	0.179651
	H180	H	0.074776	0.251448	0.199802
	H181	H	-0.032137	0.178291	0.322002
	H182	H	0.010455	0.320054	0.267423
	H183	H	-0.080083	0.138152	0.122683
	H184	H	0.143352	0.255830	0.259992
	H185	H	-0.093525	0.178011	0.391978
	H186	H	0.012307	0.381067	0.196226
	N187	N	-0.019799	0.081297	0.105025
	N188	N	0.158166	0.248860	0.382893
	N189	N	-0.150158	0.237197	0.407772
	N190	N	-0.003850	0.381928	0.066614
	C191	C	0.493711	0.473464	0.966612
	C192	C	0.507071	0.544406	1.043872
	C193	C	0.534714	0.483437	0.988797
	C194	C	0.466080	0.534459	1.021594
	C195	C	0.541296	0.518198	1.026683
	C196	C	0.459498	0.499700	0.983761
	H197	H	0.427653	0.492551	0.966987
	H198	H	0.573147	0.525470	1.043249
	H199	H	0.439523	0.554594	1.034558
	H200	H	0.561259	0.463375	0.975575
	C201	C	0.486597	0.436761	0.925734
	H202	H	0.453374	0.431892	0.911251
	C203	C	0.514036	0.581775	1.083340
	H204	H	0.547162	0.587262	1.097785
	C205	C	0.505591	1.042188	-0.044962
	C206	C	0.509125	0.975938	0.046155
	C207	C	0.517878	1.048924	0.019507
	C208	C	0.496828	0.969211	-0.018314
	C209	C	0.519608	1.016477	0.064208
	C210	C	0.495081	1.001652	-0.062999
	H211	H	0.485424	0.995890	-0.112475
	H212	H	0.529067	1.022264	0.113755
	H213	H	0.488575	0.938024	-0.032539
	H214	H	0.525931	1.080156	0.033777
	C215	C	0.503080	1.076796	-0.092402
	H216	H	0.492518	1.068265	-0.141081
	C217	C	0.510301	0.941512	0.093881
	H218	H	0.520018	0.949979	0.142968
	C219	C	0.293550	0.251936	0.524631
	C220	C	0.209862	0.247177	0.470949
	C221	C	0.259086	0.245015	0.563681
	C222	C	0.244298	0.254275	0.431927
	C223	C	0.218071	0.242683	0.537431
	C224	C	0.285316	0.256616	0.458181
	H225	H	0.311477	0.262097	0.427321
	H226	H	0.191897	0.237302	0.568311
	H227	H	0.238183	0.257891	0.380595
	H228	H	0.265179	0.241494	0.615030
	C229	C	0.337188	0.254575	0.552636
	H230	H	0.361762	0.260256	0.518134
	C231	C	0.166163	0.244822	0.443083
	H232	H	0.141607	0.239493	0.477756
	C233	C	0.718811	0.249012	0.543335
	C234	C	0.784489	0.258585	0.455668
	C235	C	0.717833	0.282710	0.499793
	C236	C	0.785587	0.225031	0.499483
	C237	C	0.750013	0.287438	0.456827
	C238	C	0.753436	0.220318	0.542458
	H239	H	0.754823	0.194213	0.575852
	H240	H	0.748693	0.313586	0.423519
	H241	H	0.812164	0.202715	0.499029
	H242	H	0.691277	0.305044	0.500368
	C243	C	0.684627	0.243811	0.589089
	H244	H	0.688767	0.216686	0.621324
	C245	C	0.818723	0.263499	0.409880
	H246	H	0.814962	0.290648	0.377662
	C247	C	0.507408	0.261345	0.755932
	C248	C	0.510103	0.148261	0.881190
	C249	C	0.512700	0.377483	0.870459
	C250	C	0.385272	0.252658	0.643363
	C251	C	0.619253	0.265720	0.632498
	C252	C	0.519575	0.187437	0.906215
	C253	C	0.474577	0.365437	0.840056
	C254	C	0.422898	0.262016	0.613066
	C255	C	0.610595	0.229462	0.667185
	C256	C	0.518948	0.223233	0.867616
	C257	C	0.472686	0.329190	0.803583
	C258	C	0.461487	0.264726	0.647888
	C259	C	0.575612	0.227828	0.706227
	C260	C	0.509722	0.221883	0.801423
	C261	C	0.508230	0.302540	0.796195
	C262	C	0.464692	0.259206	0.714670
	C263	C	0.546737	0.261625	0.711745
	C264	C	0.500570	0.182618	0.776452
	C265	C	0.546226	0.314787	0.826480
	C266	C	0.427021	0.249863	0.744608
	C267	C	0.555430	0.297657	0.676742
	C268	C	0.501097	0.146680	0.814731
	C269	C	0.548410	0.350971	0.862817
	C270	C	0.388435	0.247061	0.710241
	C271	C	0.590284	0.299550	0.637689
	H272	H	0.526930	0.189606	0.957312
	H273	H	0.445778	0.384436	0.843295
	H274	H	0.422914	0.266946	0.561675
	H275	H	0.630901	0.201775	0.664152
	H276	H	0.525342	0.252661	0.890153
	H277	H	0.442693	0.321936	0.780184
	H278	H	0.489655	0.270954	0.621922
	H279	H	0.571050	0.199432	0.732961
	H280	H	0.492714	0.180433	0.725514
	H281	H	0.574658	0.295377	0.821223
	H282	H	0.428166	0.244703	0.796130
	H283	H	0.534284	0.324783	0.680498
	H284	H	0.494021	0.117561	0.791701
	H285	H	0.578308	0.359296	0.885861
	H286	H	0.359920	0.240061	0.735155
	H287	H	0.595833	0.327874	0.611024
	N288	N	0.512107	0.113853	0.923163
	N289	N	0.517130	0.412551	0.909417
	N290	N	0.345070	0.250467	0.612841
	N291	N	0.652923	0.269462	0.590985
