data_Molecule from CHK

_cell_length_a		25.313965
_cell_length_b		25.311091
_cell_length_c		6.922899
_cell_angle_alpha	87.783275
_cell_angle_beta	92.210832
_cell_angle_gamma	105.187808
_symmetry_space_group_name_H-M	'P 1'
_symmetry_Int_Tables_number		1

loop_
	_symmetry_equiv_pos_as_xyz
	x,y,z

loop_
	_atom_site_label
	_atom_site_type_symbol
	_atom_site_fract_x
	_atom_site_fract_y
	_atom_site_fract_z
	C0	C	0.020412	0.770528	1.000567
	C1	C	-0.005124	0.625365	1.406709
	C2	C	0.031097	0.907387	1.390924
	C3	C	-0.124823	0.745099	0.594875
	C4	C	0.157285	0.781585	0.609889
	C5	C	0.020507	0.678600	1.464140
	C6	C	-0.016283	0.886741	1.276790
	C7	C	-0.071621	0.770900	0.537545
	C8	C	0.136662	0.734125	0.723707
	C9	C	0.029921	0.723453	1.335022
	C10	C	-0.018340	0.846439	1.142091
	C11	C	-0.026753	0.780233	0.666540
	C12	C	0.096361	0.731960	0.858496
	C13	C	0.011999	0.718715	1.141951
	C14	C	0.025894	0.823839	1.118007
	C15	C	-0.031396	0.761850	0.859151
	C16	C	0.073736	0.776159	0.882999
	C17	C	-0.014780	0.665322	1.084705
	C18	C	0.075275	0.850607	1.211364
	C19	C	-0.084802	0.735224	0.916638
	C20	C	0.100471	0.825609	0.789942
	C21	C	-0.023592	0.619985	1.213408
	C22	C	0.078041	0.892262	1.340751
	C23	C	-0.130160	0.726502	0.788071
	C24	C	0.142131	0.828483	0.660471
	H25	H	0.031240	0.685709	1.614795
	H26	H	-0.052135	0.901624	1.293949
	H27	H	-0.064537	0.781852	0.387025
	H28	H	0.151568	0.698298	0.706270
	H29	H	0.051206	0.763040	1.388489
	H30	H	-0.055902	0.831113	1.058839
	H31	H	0.012802	0.801679	0.613209
	H32	H	0.081061	0.694338	0.941484
	H33	H	-0.029258	0.659106	0.935789
	H34	H	0.111721	0.837135	1.187671
	H35	H	-0.090984	0.720681	1.065513
	H36	H	0.086972	0.862026	0.813920
	H37	H	-0.045201	0.579638	1.164827
	H38	H	0.116510	0.912484	1.411209
	H39	H	-0.170496	0.704889	0.836730
	H40	H	0.162334	0.867005	0.590262
	N41	N	-0.015300	0.580898	1.542087
	N42	N	0.034510	0.941516	1.549169
	N43	N	-0.169285	0.734931	0.459488
	N44	N	0.191405	0.785103	0.451538
	C45	C	0.278029	0.753506	0.822995
	C46	C	0.221942	0.747047	1.173907
	C47	C	0.253178	0.702632	0.911353
	C48	C	0.247018	0.797927	1.086051
	C49	C	0.225545	0.699451	1.082881
	C50	C	0.274650	0.801107	0.914507
	H51	H	0.293384	0.840644	0.847583
	H52	H	0.206932	0.659919	1.150062
	H53	H	0.243813	0.834776	1.154050
	H54	H	0.256491	0.665786	0.843601
	C55	C	0.309029	0.757285	0.644089
	H56	H	0.333948	0.798487	0.605019
	C57	C	0.191197	0.743228	1.353417
	H58	H	0.166352	0.702000	1.392555
	C59	C	0.712547	0.741399	0.840212
	C60	C	0.788342	0.759913	1.159475
	C61	C	0.754240	0.790276	0.852000
	C62	C	0.746534	0.711117	1.148046
	C63	C	0.791392	0.799315	1.008163
	C64	C	0.709380	0.702076	0.991849
	H65	H	0.677059	0.664355	0.986423
	H66	H	0.823611	0.837109	1.013843
	H67	H	0.743864	0.680689	1.264409
	H68	H	0.756822	0.820779	0.735937
	C69	C	0.671095	0.732141	0.680302
	H70	H	0.640344	0.692462	0.688216
	C71	C	0.829413	0.769577	1.320513
	H72	H	0.859808	0.809507	1.313251
	C73	C	-0.008873	0.462560	1.160859
	C74	C	0.009681	0.538473	0.841931
	C75	C	0.039998	0.504265	1.149270
	C76	C	-0.039105	0.496645	0.853144
	C77	C	0.049059	0.541477	0.993263
	C78	C	-0.048167	0.459432	1.009180
	H79	H	-0.085878	0.427097	1.014446
	H80	H	0.086847	0.573708	0.987724
	H81	H	-0.069510	0.494009	0.736746
	H82	H	0.070479	0.506807	1.265368
	C83	C	-0.018160	0.421056	1.320619
	H84	H	-0.057842	0.390319	1.312582
	C85	C	0.019345	0.579596	0.681039
	H86	H	0.059252	0.610022	0.688358
	C87	C	0.002778	0.027869	1.178031
	C88	C	-0.003635	-0.027974	0.826604
	C89	C	-0.048078	0.003135	1.089389
	C90	C	0.047227	-0.002929	0.914570
	C91	C	-0.051237	-0.024390	0.917626
	C92	C	0.050383	0.024565	1.086393
	H93	H	0.089908	0.043204	1.153529
	H94	H	-0.090756	-0.042961	0.850313
	H95	H	0.084084	-0.006094	0.846542
	H96	H	-0.084928	0.006372	1.157279
	C97	C	0.006573	0.058265	1.358381
	H98	H	0.047852	0.082743	1.398578
	C99	C	-0.007413	-0.058648	0.646938
	H100	H	-0.048587	-0.083655	0.608053
	C101	C	0.480416	0.729769	0.999626
	C102	C	0.343193	0.718823	1.388527
	C103	C	0.508106	0.874372	0.590632
	C104	C	0.469384	0.592705	0.609908
	C105	C	0.624962	0.758232	1.408928
	C106	C	0.363726	0.766173	1.274047
	C107	C	0.480620	0.821416	0.535259
	C108	C	0.516852	0.613384	0.723610
	C109	C	0.572071	0.730545	1.464335
	C110	C	0.404213	0.768333	1.139991
	C111	C	0.470752	0.776743	0.665191
	C112	C	0.519037	0.653789	0.858013
	C113	C	0.527413	0.720412	1.334345
	C114	C	0.427179	0.724276	1.117355
	C115	C	0.489125	0.781515	0.857812
	C116	C	0.474893	0.676542	0.881746
	C117	C	0.532185	0.738394	1.141305
	C118	C	0.400371	0.674821	1.210248
	C119	C	0.515498	0.834995	0.915125
	C120	C	0.425379	0.649599	0.789583
	C121	C	0.585570	0.765223	1.084244
	C122	C	0.358586	0.671952	1.339151
	C123	C	0.524771	0.880181	0.785656
	C124	C	0.422488	0.607874	0.660395
	C125	C	0.630724	0.774840	1.213841
	H126	H	0.348457	0.801845	1.290000
	H127	H	0.469221	0.814180	0.385129
	H128	H	0.552596	0.598298	0.706810
	H129	H	0.564841	0.719425	1.614681
	H130	H	0.419253	0.805758	1.055666
	H131	H	0.448749	0.737261	0.612638
	H132	H	0.556544	0.668953	0.941735
	H133	H	0.487964	0.698369	1.387046
	H134	H	0.413995	0.638436	1.186961
	H135	H	0.529548	0.841333	1.064417
	H136	H	0.388952	0.663068	0.813638
	H137	H	0.591884	0.779279	0.934941
	H138	H	0.338452	0.633468	1.409755
	H139	H	0.545822	0.920661	0.834517
	H140	H	0.383948	0.587616	0.590452
	H141	H	0.671133	0.796168	1.165067
	N142	N	0.308895	0.715371	1.546291
	N143	N	0.516741	0.919161	0.456898
	N144	N	0.465824	0.558443	0.451986
	N145	N	0.669734	0.767160	1.542722
	C146	C	-0.020454	0.230157	1.000601
	C147	C	-0.032153	0.091090	0.617314
	C148	C	0.124127	0.258232	1.409578
	C149	C	-0.159480	0.218283	1.384130
	C150	C	0.007920	0.374834	0.591813
	C151	C	0.015846	0.113357	0.726327
	C152	C	0.071189	0.230775	1.465201
	C153	C	-0.137158	0.266369	1.275579
	C154	C	-0.019849	0.321968	0.536348
	C155	C	0.018139	0.154160	0.859209
	C156	C	0.026495	0.220811	1.335402
	C157	C	-0.096379	0.268725	1.142535
	C158	C	-0.029925	0.277254	0.666125
	C159	C	-0.026002	0.176921	0.882716
	C160	C	0.031302	0.238710	1.142272
	C161	C	-0.073703	0.224555	1.118420
	C162	C	-0.011852	0.281961	0.859083
	C163	C	-0.075454	0.150179	0.789739
	C164	C	0.084721	0.265369	1.085055
	C165	C	-0.100498	0.175037	1.210931
	C166	C	0.015049	0.335326	0.916224
	C167	C	-0.078557	0.107926	0.662587
	C168	C	0.129905	0.274818	1.214481
	C169	C	-0.142734	0.171875	1.338198
	C170	C	0.024637	0.380526	0.786807
	H171	H	0.051729	0.098497	0.709487
	H172	H	0.063976	0.219519	1.615445
	H173	H	-0.151939	0.302280	1.292916
	H174	H	-0.031240	0.314806	0.386186
	H175	H	0.055833	0.169742	0.941442
	H176	H	-0.012920	0.198647	1.388123
	H177	H	-0.080722	0.306485	1.060699
	H178	H	-0.052298	0.237894	0.613521
	H179	H	-0.111726	0.164067	0.812258
	H180	H	0.091040	0.279378	0.935708
	H181	H	-0.086649	0.138761	1.188018
	H182	H	0.029159	0.341590	1.065484
	H183	H	-0.117039	0.088074	0.591400
	H184	H	0.170351	0.295951	1.165534
	H185	H	-0.162636	0.133338	1.408982
	H186	H	0.046004	0.420915	0.835675
	N187	N	-0.035386	0.058110	0.455822
	N188	N	0.168933	0.266918	1.543188
	N189	N	-0.192405	0.214931	1.545838
	N190	N	0.016837	0.419653	0.458195
	C191	C	0.496923	0.471618	0.823371
	C192	C	0.503704	0.527512	1.174849
	C193	C	0.547867	0.496461	0.911186
	C194	C	0.452764	0.502816	1.086709
	C195	C	0.551206	0.524014	1.082965
	C196	C	0.449426	0.475295	0.914867
	H197	H	0.409846	0.456863	0.847744
	H198	H	0.590792	0.542623	1.149721
	H199	H	0.415990	0.506189	1.154799
	H200	H	0.584644	0.493240	0.842741
	C201	C	0.492934	0.441432	0.642459
	H202	H	0.451568	0.417220	0.602059
	C203	C	0.507662	0.558446	1.353998
	H204	H	0.548881	0.583436	1.392406
	C205	C	0.508249	1.037874	-0.158921
	C206	C	0.490577	0.961780	0.159555
	C207	C	0.459748	0.995683	-0.147507
	C208	C	0.539185	1.003821	0.147689
	C209	C	0.451126	0.958374	0.008269
	C210	C	0.547811	1.041124	-0.008096
	H211	H	0.585375	1.073644	-0.013756
	H212	H	0.413623	0.925773	0.013702
	H213	H	0.569787	1.006583	0.263474
	H214	H	0.429202	0.992852	-0.263521
	C215	C	0.517297	1.079239	-0.319106
	H216	H	0.557025	1.109931	-0.312044
	C217	C	0.481698	0.920235	0.319172
	H218	H	0.442100	0.889355	0.311628
	C219	C	0.287694	0.258455	1.158680
	C220	C	0.211628	0.240718	0.840236
	C221	C	0.245556	0.209911	1.147262
	C222	C	0.253607	0.289373	0.852128
	C223	C	0.208261	0.201255	0.991486
	C224	C	0.290901	0.298032	1.007900
	H225	H	0.323377	0.335630	1.013586
	H226	H	0.175706	0.163714	0.986014
	H227	H	0.256333	0.319984	0.736364
	H228	H	0.242762	0.179356	1.263250
	C229	C	0.329062	0.267522	1.318799
	H230	H	0.359742	0.307260	1.311669
	C231	C	0.170129	0.231784	0.680521
	H232	H	0.139209	0.192213	0.688252
	C233	C	0.721497	0.246169	1.175727
	C234	C	0.777252	0.252863	0.823953
	C235	C	0.746304	0.297096	1.087669
	C236	C	0.752665	0.201941	0.912489
	C237	C	0.773772	0.300391	0.915722
	C238	C	0.725198	0.198644	1.084446
	H239	H	0.706805	0.159075	1.151782
	H240	H	0.792292	0.339968	0.848678
	H241	H	0.756007	0.165147	0.844444
	H242	H	0.743081	0.333898	1.155953
	C243	C	0.691326	0.242252	1.356662
	H244	H	0.667077	0.200910	1.397250
	C245	C	0.807705	0.256810	0.643652
	H246	H	0.831908	0.298181	0.603188
	C247	C	0.519597	0.269593	0.999327
	C248	C	0.491139	0.125158	1.409232
	C249	C	0.531488	0.408557	1.383079
	C250	C	0.375019	0.241333	0.590283
	C251	C	0.658534	0.280991	0.615797
	C252	C	0.518853	0.178071	1.464381
	C253	C	0.483425	0.386288	1.274388
	C254	C	0.427903	0.269089	0.534983
	C255	C	0.636227	0.233012	0.724926
	C256	C	0.529001	0.222706	1.334262
	C257	C	0.481091	0.345588	1.141043
	C258	C	0.472568	0.279179	0.664907
	C259	C	0.595517	0.230822	0.858105
	C260	C	0.510960	0.217889	1.141303
	C261	C	0.525302	0.323021	1.116307
	C262	C	0.467812	0.261025	0.857769
	C263	C	0.572822	0.275018	0.881492
	C264	C	0.484112	0.164474	1.084484
	C265	C	0.574735	0.349591	1.209765
	C266	C	0.414422	0.234174	0.914792
	C267	C	0.599655	0.324455	0.788560
	C268	C	0.474506	0.119340	1.214209
	C269	C	0.577878	0.391769	1.337270
	C270	C	0.369255	0.224631	0.785270
	C271	C	0.641858	0.327471	0.661300
	H272	H	0.530001	0.185359	1.614649
	H273	H	0.447448	0.400910	1.292305
	H274	H	0.435148	0.280312	0.384735
	H275	H	0.650856	0.197012	0.707547
	H276	H	0.551123	0.262147	1.386867
	H277	H	0.443252	0.329782	1.059866
	H278	H	0.511984	0.301345	0.612221
	H279	H	0.579707	0.193067	0.939779
	H280	H	0.470050	0.158116	0.935210
	H281	H	0.610984	0.335682	1.187050
	H282	H	0.408106	0.220068	1.064047
	H283	H	0.585864	0.360785	0.811111
	H284	H	0.453184	0.078914	1.165563
	H285	H	0.616375	0.411556	1.408496
	H286	H	0.328844	0.203305	0.834038
	H287	H	0.661774	0.365939	0.590106
	N288	N	0.482248	0.080426	1.543285
	N289	N	0.534829	0.441415	1.544955
	N290	N	0.330267	0.232461	0.456378
	N291	N	0.691374	0.284202	0.453966
