
data_topas_cif_out
_chemical_name_mineral ?Small?
_cell_length_a 20.41408
_cell_length_b 20.41408
_cell_length_c 8.821647
_cell_angle_alpha 90
_cell_angle_beta 90
_cell_angle_gamma 90
_cell_volume 3676.284
_symmetry_space_group_name_H-M I41/a:2
loop_
	_symmetry_equiv_pos_as_xyz
	 'x, y, z '
	 '-x+1/2, -y, z+1/2 '
	 '-y+1/4, x+1/4, -z+1/4 '
	 '-y-1/4, x+1/4, z+1/4 '
	 'y+1/4, -x-1/4, -z-1/4 '
	 'y-1/4, -x-1/4, z-1/4 '
	 '-x, -y, -z '
	 'x+1/2, y, -z+1/2 '
	 'x+1/2, y+1/2, z+1/2 '
	 '-x, -y+1/2, z '
	 '-y-1/4, x-1/4, -z-1/4 '
	 '-y+1/4, x-1/4, z-1/4 '
	 'y-1/4, -x+1/4, -z+1/4 '
	 'y+1/4, -x+1/4, z+1/4 '
	 '-x+1/2, -y+1/2, -z+1/2 '
	 'x, y+1/2, -z '
loop_
_atom_site_label
_atom_site_type_symbol
_atom_site_symmetry_multiplicity
_atom_site_fract_x
_atom_site_fract_y
_atom_site_fract_z
_atom_site_occupancy
_atom_site_B_iso_or_equiv
C1 C   4 0.5 0.75 0.125 1 1.264531
N2 N  16 0.6819 0.7109 0.630675 1 1.264531
C3 C  16 0.56 0.7419 0.015 1 1.264531
C4 C  16 0.6459 0.7249 0.7657875 1 1.264531
C5 C  16 0.6329 0.6719 0.862225 1 1.264531
H5 H  16 0.6539 0.6288719 0.843225 1 10
C6 C  16 0.5900016 0.6799 0.986 1 1.264531
H6 H  16 0.5820281 0.6418719 0.051 1 10
C7 C  16 0.6179 0.788 0.797 1 1.264531
H7 H  16 0.6270281 0.825 0.7359 1 10
C8 C  16 0.7049 0.76 0.5559 1 1.264531
H8 H  16 0.7059 0.803 0.6009 1 10
C9 C  16 0.7499 0.811 0.3250238 1 1.264531
H9 H  16 0.7499 0.853 0.3760281 1 10
C10 C  16 0.575 0.795 0.92 1 1.264531
H10 H  16 0.556 0.839 0.941 1 10
C11 C  16 0.7309 0.752 0.399225 1 1.264531
C13 C  16 0.7309 0.6909 0.3259 1 1.264531
H13 H  16 0.7179 0.6509 0.375 1 10