data_Molecule from CHK

_cell_length_a		30.721620
_cell_length_b		30.717770
_cell_length_c		22.040446
_cell_angle_alpha	90.173076
_cell_angle_beta	89.857244
_cell_angle_gamma	91.410568
_symmetry_space_group_name_H-M	'P 1'
_symmetry_Int_Tables_number		1

loop_
	_symmetry_equiv_pos_as_xyz
	x,y,z

loop_
	_atom_site_label
	_atom_site_type_symbol
	_atom_site_fract_x
	_atom_site_fract_y
	_atom_site_fract_z
	C0	C	0.000431	0.749465	0.750575
	C1	C	0.000759	0.623281	0.848087
	C2	C	0.014404	0.861537	0.877211
	C3	C	-0.125750	0.750159	0.653037
	C4	C	0.111986	0.763008	0.623105
	C5	C	-0.035004	0.650740	0.850161
	C6	C	0.017834	0.866607	0.814168
	C7	C	-0.098556	0.714185	0.651289
	C8	C	0.117342	0.766336	0.686122
	C9	C	-0.034335	0.690317	0.819222
	C10	C	0.013322	0.830901	0.775186
	C11	C	-0.059010	0.714697	0.682322
	C12	C	0.081801	0.761901	0.725370
	C13	C	0.001679	0.704538	0.784560
	C14	C	0.005464	0.788444	0.796737
	C15	C	-0.044637	0.750702	0.716931
	C16	C	0.039228	0.754231	0.704129
	C17	C	0.036408	0.675885	0.780523
	C18	C	0.003859	0.783542	0.859941
	C19	C	-0.072910	0.785779	0.720324
	C20	C	0.034052	0.752645	0.640963
	C21	C	0.036025	0.636232	0.811408
	C22	C	0.008337	0.819099	0.899272
	C23	C	-0.112533	0.785545	0.689360
	C24	C	0.069443	0.757046	0.601369
	H25	H	-0.063604	0.640666	0.875906
	H26	H	0.024286	0.898833	0.795832
	H27	H	-0.108803	0.685572	0.625660
	H28	H	0.149653	0.772704	0.704233
	H29	H	-0.062503	0.710850	0.821507
	H30	H	0.016034	0.835794	0.726611
	H31	H	-0.038662	0.686384	0.680251
	H32	H	0.086903	0.764573	0.773913
	H33	H	0.064274	0.684168	0.752452
	H34	H	-0.000450	0.751459	0.879369
	H35	H	-0.064401	0.813763	0.748076
	H36	H	0.001878	0.748449	0.621776
	H37	H	0.063338	0.614709	0.807406
	H38	H	0.007104	0.814293	0.947967
	H39	H	-0.133808	0.813081	0.692989
	H40	H	0.064418	0.755873	0.552710
	N41	N	0.000456	0.582992	0.878255
	N42	N	0.019567	0.896947	0.917358
	N43	N	-0.166019	0.749982	0.622809
	N44	N	0.147172	0.768335	0.582684
	C45	C	0.287857	0.753655	0.460902
	C46	C	0.215568	0.745351	0.540632
	C47	C	0.284209	0.718806	0.501893
	C48	C	0.219329	0.780319	0.499851
	C49	C	0.248792	0.714709	0.540991
	C50	C	0.254741	0.784415	0.460758
	H51	H	0.257117	0.811585	0.429590
	H52	H	0.246460	0.687598	0.572265
	H53	H	0.193875	0.804160	0.499504
	H54	H	0.309717	0.695023	0.502323
	C55	C	0.325505	0.758140	0.419407
	H56	H	0.325808	0.786319	0.388781
	C57	C	0.177956	0.741015	0.582228
	H58	H	0.177581	0.712894	0.612949
	C59	C	0.712432	0.749443	0.464640
	C60	C	0.791560	0.749237	0.530587
	C61	C	0.752806	0.749507	0.434544
	C62	C	0.751194	0.749330	0.560690
	C63	C	0.791599	0.749396	0.466822
	C64	C	0.712393	0.749421	0.528406
	H65	H	0.681543	0.749464	0.552341
	H66	H	0.822448	0.749478	0.442878
	H67	H	0.750956	0.749293	0.609896
	H68	H	0.753062	0.749672	0.385340
	C69	C	0.671205	0.749816	0.430343
	H70	H	0.641049	0.749965	0.457262
	C71	C	0.832849	0.749425	0.564758
	H72	H	0.862950	0.749427	0.537695
	C73	C	-0.001352	0.461287	0.036176
	C74	C	-0.001240	0.540468	-0.029634
	C75	C	-0.002020	0.501628	0.066338
	C76	C	-0.000426	0.500134	-0.059800
	C77	C	-0.001975	0.540447	0.034127
	C78	C	-0.000489	0.461308	-0.027582
	H79	H	0.000130	0.430483	-0.051563
	H80	H	-0.002462	0.571271	0.058124
	H81	H	0.000227	0.499942	-0.109000
	H82	H	-0.002539	0.501839	0.115540
	C83	C	-0.001098	0.420034	0.070406
	H84	H	-0.000322	0.389913	0.043429
	C85	C	-0.000871	0.581789	-0.063719
	H86	H	-0.001421	0.611853	-0.036585
	C87	C	0.002389	0.037620	0.038808
	C88	C	-0.004422	-0.034857	-0.040886
	C89	C	-0.032360	0.033245	-0.002265
	C90	C	0.030483	-0.030341	-0.000092
	C91	C	-0.035722	-0.002256	-0.041344
	C92	C	0.033848	0.005170	0.038988
	H93	H	0.060954	0.008123	0.070214
	H94	H	-0.062788	-0.005159	-0.072643
	H95	H	0.054834	-0.055308	0.000313
	H96	H	-0.056680	0.058240	-0.002748
	C97	C	0.005898	0.075295	0.080456
	H98	H	0.034091	0.076351	0.111066
	C99	C	-0.008152	-0.072622	-0.082333
	H100	H	-0.036422	-0.073620	-0.112817
	C101	C	0.502037	0.750947	0.249270
	C102	C	0.391360	0.736454	0.378040
	C103	C	0.502191	0.878670	0.155581
	C104	C	0.486437	0.639610	0.121719
	C105	C	0.630334	0.750583	0.341437
	C106	C	0.385631	0.733314	0.315070
	C107	C	0.537328	0.850544	0.151192
	C108	C	0.483518	0.634263	0.184767
	C109	C	0.602422	0.785879	0.346091
	C110	C	0.420892	0.738137	0.275422
	C111	C	0.536587	0.810555	0.181106
	C112	C	0.488633	0.669745	0.224006
	C113	C	0.562250	0.785295	0.316653
	C114	C	0.463540	0.746108	0.296183
	C115	C	0.500762	0.796165	0.216018
	C116	C	0.496684	0.712248	0.202745
	C117	C	0.547350	0.749381	0.282272
	C118	C	0.469140	0.747243	0.359297
	C119	C	0.465748	0.824480	0.219906
	C120	C	0.497505	0.717490	0.139572
	C121	C	0.575579	0.714326	0.277792
	C122	C	0.434016	0.742502	0.399302
	C123	C	0.466234	0.864575	0.190153
	C124	C	0.492475	0.682138	0.099971
	C125	C	0.615875	0.714666	0.307026
	H126	H	0.353266	0.726656	0.297318
	H127	H	0.565702	0.860637	0.124980
	H128	H	0.476839	0.602024	0.202923
	H129	H	0.612901	0.814315	0.371933
	H130	H	0.415510	0.735392	0.226946
	H131	H	0.564553	0.789817	0.177795
	H132	H	0.486111	0.664652	0.272561
	H133	H	0.541712	0.813408	0.320072
	H134	H	0.501431	0.751487	0.378093
	H135	H	0.437651	0.815684	0.247237
	H136	H	0.501767	0.749673	0.120438
	H137	H	0.566504	0.686258	0.250533
	H138	H	0.439346	0.743454	0.447903
	H139	H	0.438637	0.885762	0.193904
	H140	H	0.493229	0.687180	0.051308
	H141	H	0.636940	0.686995	0.302954
	N142	N	0.356358	0.730890	0.418750
	N143	N	0.501692	0.918478	0.124321
	N144	N	0.480790	0.604341	0.081410
	N145	N	0.670306	0.749938	0.372294
	C146	C	-0.000733	0.250666	0.251018
	C147	C	-0.017881	0.140534	0.121742
	C148	C	0.127258	0.250565	0.344016
	C149	C	-0.111718	0.232442	0.378538
	C150	C	-0.001106	0.379085	0.159252
	C151	C	-0.019488	0.134508	0.184753
	C152	C	0.099213	0.285759	0.348585
	C153	C	-0.117256	0.230991	0.315430
	C154	C	0.034352	0.351349	0.155000
	C155	C	-0.013984	0.169622	0.224537
	C156	C	0.059144	0.285096	0.318876
	C157	C	-0.081870	0.236783	0.276221
	C158	C	0.033784	0.311154	0.184354
	C159	C	-0.005723	0.212259	0.203932
	C160	C	0.044451	0.249179	0.284334
	C161	C	-0.039429	0.245189	0.297519
	C162	C	-0.002281	0.296033	0.218208
	C163	C	-0.004213	0.217912	0.140849
	C164	C	0.072805	0.214223	0.279941
	C165	C	-0.034249	0.246463	0.360694
	C166	C	-0.037490	0.324094	0.222323
	C167	C	-0.009751	0.182953	0.100694
	C168	C	0.113017	0.214658	0.309410
	C169	C	-0.069486	0.240640	0.400278
	C170	C	-0.037155	0.364429	0.193201
	H171	H	-0.026137	0.102121	0.202420
	H172	H	0.109454	0.314147	0.374700
	H173	H	-0.149478	0.224271	0.297220
	H174	H	0.062851	0.361924	0.129401
	H175	H	-0.016275	0.164107	0.273021
	H176	H	0.038426	0.313064	0.322467
	H177	H	-0.087022	0.234649	0.227641
	H178	H	0.061936	0.290667	0.180991
	H179	H	0.000854	0.250142	0.122193
	H180	H	0.063878	0.186161	0.252578
	H181	H	-0.002182	0.251593	0.379867
	H182	H	-0.065687	0.314833	0.249176
	H183	H	-0.008256	0.188297	0.052121
	H184	H	0.134183	0.187062	0.305395
	H185	H	-0.064513	0.241992	0.448940
	H186	H	-0.064948	0.385358	0.196969
	N187	N	-0.022140	0.105423	0.080964
	N188	N	0.167147	0.250003	0.375097
	N189	N	-0.147137	0.228071	0.418767
	N190	N	-0.001747	0.419072	0.128449
	C191	C	0.495996	0.462845	0.960948
	C192	C	0.503526	0.535399	1.040425
	C193	C	0.530532	0.466720	1.002439
	C194	C	0.469057	0.531597	0.998814
	C195	C	0.534245	0.502253	1.041407
	C196	C	0.465338	0.496044	0.959844
	H197	H	0.438551	0.493617	0.928029
	H198	H	0.561117	0.504729	1.073081
	H199	H	0.445292	0.557110	0.997765
	H200	H	0.554386	0.441287	1.003384
	C201	C	0.492298	0.425241	0.919185
	H202	H	0.464446	0.424674	0.887979
	C203	C	0.507792	0.573262	1.081615
	H204	H	0.535832	0.573693	1.112514
	C205	C	0.500094	1.038938	-0.035069
	C206	C	0.500916	0.960147	0.031605
	C207	C	0.499947	0.998402	-0.064788
	C208	C	0.501293	1.000690	0.061315
	C209	C	0.500353	0.959771	-0.032152
	C210	C	0.500885	1.039317	0.028683
	H211	H	0.501169	1.070298	0.052335
	H212	H	0.500175	0.928790	-0.055800
	H213	H	0.501888	1.001211	0.110510
	H214	H	0.499449	0.997893	-0.113985
	C215	C	0.499712	1.080034	-0.069651
	H216	H	0.499976	1.110298	-0.042907
	C217	C	0.501423	0.919086	0.066269
	H218	H	0.501191	0.888782	0.039625
	C219	C	0.287969	0.249707	0.534139
	C220	C	0.209054	0.250041	0.467680
	C221	C	0.247512	0.250176	0.563977
	C222	C	0.249519	0.249796	0.437846
	C223	C	0.208821	0.250343	0.531446
	C224	C	0.288208	0.249624	0.470374
	H225	H	0.319129	0.249419	0.446630
	H226	H	0.177902	0.250654	0.555186
	H227	H	0.249930	0.249724	0.388641
	H228	H	0.247110	0.250347	0.613181
	C229	C	0.329126	0.249552	0.568619
	H230	H	0.359321	0.249263	0.541785
	C231	C	0.167922	0.250340	0.433149
	H232	H	0.137708	0.250808	0.459923
	C233	C	0.711853	0.246309	0.538856
	C234	C	0.784718	0.252639	0.459848
	C235	C	0.716656	0.281050	0.497865
	C236	C	0.780005	0.217993	0.501010
	C237	C	0.752350	0.284176	0.459122
	C238	C	0.744308	0.214863	0.539746
	H239	H	0.741175	0.187909	0.571183
	H240	H	0.755546	0.311194	0.427802
	H241	H	0.804916	0.193595	0.501881
	H242	H	0.691803	0.305510	0.497107
	C243	C	0.674076	0.243080	0.580319
	H244	H	0.672867	0.214974	0.611072
	C245	C	0.822717	0.256093	0.418805
	H246	H	0.823904	0.284167	0.387998
	C247	C	0.498303	0.249174	0.749604
	C248	C	0.498767	0.120755	0.841409
	C249	C	0.515504	0.359504	0.878594
	C250	C	0.369973	0.249478	0.657542
	C251	C	0.608736	0.266953	0.621035
	C252	C	0.463355	0.148532	0.845825
	C253	C	0.517352	0.365402	0.815567
	C254	C	0.397896	0.214189	0.652931
	C255	C	0.614559	0.268561	0.684087
	C256	C	0.463908	0.188741	0.816508
	C257	C	0.511929	0.330217	0.775878
	C258	C	0.438087	0.214813	0.682311
	C259	C	0.579340	0.262944	0.723629
	C260	C	0.499898	0.203818	0.782463
	C261	C	0.503630	0.287612	0.796587
	C262	C	0.452994	0.250750	0.716642
	C263	C	0.536799	0.254503	0.702741
	C264	C	0.535078	0.175727	0.778232
	C265	C	0.501622	0.282126	0.859673
	C266	C	0.424771	0.285814	0.721056
	C267	C	0.531333	0.253096	0.639617
	C268	C	0.534771	0.135389	0.807353
	C269	C	0.507117	0.317150	0.899730
	C270	C	0.384450	0.285436	0.691862
	C271	C	0.566395	0.258778	0.599700
	H272	H	0.434862	0.137921	0.871410
	H273	H	0.523986	0.397762	0.797798
	H274	H	0.387417	0.185715	0.627172
	H275	H	0.646896	0.275140	0.701989
	H276	H	0.435701	0.209160	0.819773
	H277	H	0.514162	0.335676	0.727377
	H278	H	0.458623	0.186700	0.678889
	H279	H	0.584746	0.264997	0.772161
	H280	H	0.563231	0.184965	0.751276
	H281	H	0.496302	0.249962	0.878426
	H282	H	0.433897	0.313916	0.748222
	H283	H	0.499175	0.247958	0.620739
	H284	H	0.562539	0.114437	0.803476
	H285	H	0.505345	0.311913	0.948311
	H286	H	0.363388	0.313111	0.695890
	H287	H	0.561198	0.257318	0.551088
	N288	N	0.499393	0.080783	0.872292
	N289	N	0.519798	0.394626	0.919332
	N290	N	0.329988	0.250018	0.626672
	N291	N	0.643983	0.271158	0.580484
