data_Molecule from CHK

_cell_length_a		28.925890
_cell_length_b		32.412081
_cell_length_c		7.350310
_cell_angle_alpha	84.280565
_cell_angle_beta	90.078932
_cell_angle_gamma	90.677447
_symmetry_space_group_name_H-M	'P 1'
_symmetry_Int_Tables_number		1

loop_
	_symmetry_equiv_pos_as_xyz
	x,y,z

loop_
	_atom_site_label
	_atom_site_type_symbol
	_atom_site_fract_x
	_atom_site_fract_y
	_atom_site_fract_z
	C0	C	0.003352	0.764482	0.326140
	C1	C	0.001217	0.647184	0.695823
	C2	C	-0.004965	0.878936	0.609280
	C3	C	-0.119446	0.757483	-0.034182
	C4	C	0.128714	0.771678	-0.024085
	C5	C	0.011680	0.685145	0.763225
	C6	C	-0.041352	0.866372	0.500858
	C7	C	-0.077522	0.775158	-0.101807
	C8	C	0.111633	0.733507	0.056377
	C9	C	0.012910	0.722277	0.648948
	C10	C	-0.039070	0.830002	0.414851
	C11	C	-0.038975	0.777790	0.011414
	C12	C	0.072870	0.731317	0.169698
	C13	C	0.002945	0.723700	0.461945
	C14	C	-0.000054	0.804561	0.429025
	C15	C	-0.039772	0.762447	0.196317
	C16	C	0.049030	0.766787	0.209008
	C17	C	-0.009448	0.685708	0.397327
	C18	C	0.037002	0.818194	0.531995
	C19	C	-0.081901	0.745296	0.263736
	C20	C	0.067602	0.804936	0.133811
	C21	C	-0.010497	0.648509	0.510038
	C22	C	0.034776	0.854353	0.620205
	C23	C	-0.120355	0.742275	0.151339
	C24	C	0.106826	0.807466	0.022567
	H25	H	0.019044	0.685278	0.907717
	H26	H	-0.071873	0.885550	0.486007
	H27	H	-0.074097	0.786813	-0.244272
	H28	H	0.129060	0.705262	0.030235
	H29	H	0.021210	0.750475	0.709164
	H30	H	-0.068317	0.821919	0.333155
	H31	H	-0.007571	0.791922	-0.046546
	H32	H	0.061423	0.701045	0.228014
	H33	H	-0.018796	0.685262	0.254567
	H34	H	0.068483	0.800264	0.540519
	H35	H	-0.084500	0.733833	0.407048
	H36	H	0.050760	0.833251	0.162166
	H37	H	-0.021704	0.620547	0.452718
	H38	H	0.064629	0.864137	0.694781
	H39	H	-0.152003	0.727700	0.206306
	H40	H	0.120706	0.837373	-0.031897
	N41	N	-0.000602	0.610488	0.814870
	N42	N	-0.008215	0.916478	0.687778
	N43	N	-0.159054	0.751842	-0.138575
	N44	N	0.167812	0.774251	-0.138098
	C45	C	0.290307	0.750406	0.384065
	C46	C	0.211103	0.751943	0.609083
	C47	C	0.249453	0.729381	0.342810
	C48	C	0.252013	0.772837	0.650724
	C49	C	0.210587	0.730107	0.453178
	C50	C	0.290877	0.772118	0.540341
	H51	H	0.322305	0.788103	0.574995
	H52	H	0.179199	0.714024	0.418802
	H53	H	0.252759	0.789335	0.772019
	H54	H	0.248743	0.712792	0.221775
	C55	C	0.331569	0.749926	0.266697
	H56	H	0.360702	0.769833	0.301001
	C57	C	0.170009	0.752050	0.727563
	H58	H	0.140933	0.732069	0.693349
	C59	C	0.710240	0.741414	0.404174
	C60	C	0.792198	0.758270	0.596100
	C61	C	0.745223	0.767242	0.321240
	C62	C	0.757166	0.732527	0.679195
	C63	C	0.785391	0.775589	0.415347
	C64	C	0.716987	0.724191	0.585110
	H65	H	0.690358	0.704238	0.651287
	H66	H	0.811950	0.795657	0.349385
	H67	H	0.762060	0.719211	0.819115
	H68	H	0.740276	0.780658	0.181498
	C69	C	0.667105	0.733385	0.304911
	H70	H	0.641314	0.713752	0.382063
	C71	C	0.835004	0.766899	0.696311
	H72	H	0.860469	0.787074	0.620018
	C73	C	-0.003552	0.461270	1.112613
	C74	C	0.004891	0.536294	0.881967
	C75	C	0.013077	0.461502	0.933026
	C76	C	-0.012035	0.536025	1.061141
	C77	C	0.017203	0.498295	0.819707
	C78	C	-0.016169	0.499232	1.174450
	H79	H	-0.029401	0.499487	1.312161
	H80	H	0.030363	0.498032	0.681890
	H81	H	-0.021966	0.565252	1.108915
	H82	H	0.022946	0.432269	0.885164
	C83	C	-0.007225	0.422324	1.234368
	H84	H	-0.019485	0.425447	1.373623
	C85	C	0.008882	0.575281	0.760667
	H86	H	0.021011	0.572185	0.621201
	C87	C	-0.004033	0.036961	1.083956
	C88	C	0.002536	-0.039528	0.930082
	C89	C	0.011861	0.001183	1.188128
	C90	C	-0.013530	-0.003792	0.826108
	C91	C	0.015062	-0.036344	1.112934
	C92	C	-0.016741	0.033738	0.901330
	H93	H	-0.028887	0.061025	0.818582
	H94	H	0.027064	-0.063658	1.195906
	H95	H	-0.023326	-0.005978	0.684884
	H96	H	0.021542	0.003330	1.329502
	C97	C	-0.007650	0.076737	1.164846
	H98	H	-0.022196	0.102772	1.077013
	C99	C	0.005723	-0.079434	0.850066
	H100	H	0.020015	-0.105500	0.938480
	C101	C	0.499101	0.735490	0.673752
	C102	C	0.373188	0.729635	1.020534
	C103	C	0.504202	0.852312	0.301295
	C104	C	0.505990	0.620714	0.392453
	C105	C	0.621042	0.744174	1.037064
	C106	C	0.390444	0.767578	0.938296
	C107	C	0.491339	0.814664	0.235960
	C108	C	0.542674	0.633162	0.499689
	C109	C	0.579574	0.725278	1.103069
	C110	C	0.429458	0.769365	0.826387
	C111	C	0.489399	0.777661	0.350968
	C112	C	0.540863	0.669655	0.584995
	C113	C	0.541231	0.722241	0.989110
	C114	C	0.453443	0.733696	0.790757
	C115	C	0.500136	0.776173	0.537340
	C116	C	0.502091	0.695388	0.570871
	C117	C	0.542243	0.737227	0.803787
	C118	C	0.434578	0.695749	0.866949
	C119	C	0.512798	0.814126	0.601679
	C120	C	0.464643	0.681755	0.469965
	C121	C	0.584430	0.754313	0.736696
	C122	C	0.395136	0.693618	0.976921
	C123	C	0.514666	0.851189	0.488173
	C124	C	0.466403	0.645490	0.382368
	C125	C	0.622596	0.757944	0.850000
	H126	H	0.372851	0.795939	0.961445
	H127	H	0.483071	0.814614	0.092174
	H128	H	0.572996	0.613735	0.514586
	H129	H	0.576088	0.713579	1.245463
	H130	H	0.440902	0.799448	0.765720
	H131	H	0.479841	0.749614	0.291825
	H132	H	0.570225	0.677556	0.666489
	H133	H	0.509917	0.707834	1.046601
	H134	H	0.451428	0.667293	0.840636
	H135	H	0.521898	0.814608	0.744673
	H136	H	0.433264	0.699831	0.462201
	H137	H	0.587267	0.765336	0.592973
	H138	H	0.381100	0.663864	1.032581
	H139	H	0.525982	0.879126	0.545451
	H140	H	0.436307	0.635771	0.309042
	H141	H	0.654386	0.772215	0.794904
	N142	N	0.333860	0.727469	1.133262
	N143	N	0.504616	0.889146	0.183113
	N144	N	0.508828	0.583118	0.314116
	N145	N	0.661079	0.748730	1.140279
	C146	C	-0.003799	0.234366	0.676839
	C147	C	0.002587	0.117834	0.408285
	C148	C	0.118083	0.243727	1.040161
	C149	C	-0.131654	0.228271	1.012943
	C150	C	0.001787	0.350530	0.300223
	C151	C	0.040002	0.131540	0.508405
	C152	C	0.076775	0.224510	1.106069
	C153	C	-0.113811	0.266274	0.933731
	C154	C	-0.010863	0.312706	0.236042
	C155	C	0.038298	0.168525	0.590036
	C156	C	0.038423	0.221344	0.992229
	C157	C	-0.074242	0.268124	0.824882
	C158	C	-0.012979	0.275905	0.352398
	C159	C	-0.000654	0.194030	0.575595
	C160	C	0.039281	0.236431	0.807015
	C161	C	-0.049613	0.232546	0.792950
	C162	C	-0.002974	0.274854	0.539261
	C163	C	-0.038066	0.180070	0.475412
	C164	C	0.081330	0.253845	0.740027
	C165	C	-0.067932	0.194637	0.872101
	C166	C	0.009586	0.312962	0.602334
	C167	C	-0.036443	0.143280	0.391605
	C168	C	0.119477	0.257658	0.853246
	C169	C	-0.107923	0.192413	0.978938
	C170	C	0.011749	0.349803	0.487409
	H171	H	0.070556	0.112398	0.522878
	H172	H	0.073475	0.212464	1.248108
	H173	H	-0.131774	0.294590	0.954618
	H174	H	-0.018732	0.312321	0.092059
	H175	H	0.067955	0.177078	0.668437
	H176	H	0.007326	0.206482	1.049483
	H177	H	-0.062775	0.298202	0.764224
	H178	H	-0.022514	0.247716	0.294360
	H179	H	-0.069366	0.198252	0.465674
	H180	H	0.084104	0.264945	0.596371
	H181	H	-0.050279	0.166281	0.850107
	H182	H	0.018312	0.313749	0.745527
	H183	H	-0.066443	0.133465	0.317958
	H184	H	0.151145	0.272171	0.798154
	H185	H	-0.121302	0.162694	1.038086
	H186	H	0.022952	0.377865	0.543918
	N187	N	0.006218	0.080661	0.327331
	N188	N	0.158170	0.248377	1.142978
	N189	N	-0.170208	0.226104	1.129748
	N190	N	0.002631	0.387157	0.180655
	C191	C	0.503277	0.462758	-0.082658
	C192	C	0.497559	0.539249	0.071635
	C193	C	0.487367	0.498611	-0.186207
	C194	C	0.513195	0.503338	0.175539
	C195	C	0.484581	0.536141	-0.110796
	C196	C	0.515995	0.465808	0.100093
	H197	H	0.527881	0.438399	0.182695
	H198	H	0.472627	0.563532	-0.193359
	H199	H	0.523069	0.505411	0.316762
	H200	H	0.477413	0.496534	-0.327339
	C201	C	0.506338	0.422949	-0.163584
	H202	H	0.520633	0.396778	-0.075840
	C203	C	0.494650	0.579122	0.152051
	H204	H	0.480420	0.605276	0.063994
	C205	C	0.504137	1.038446	0.887359
	C206	C	0.497537	0.963214	1.117489
	C207	C	0.487664	1.037831	1.067331
	C208	C	0.513814	0.963806	0.937250
	C209	C	0.484441	1.000933	1.180408
	C210	C	0.517053	1.000702	0.824208
	H211	H	0.529896	1.000710	0.685805
	H212	H	0.471480	1.000901	1.318651
	H213	H	0.524074	0.934765	0.888572
	H214	H	0.477287	1.066860	1.115812
	C215	C	0.506844	1.077477	0.765815
	H216	H	0.518733	1.074582	0.625866
	C217	C	0.494514	0.924101	1.238386
	H218	H	0.482692	0.926914	1.378484
	C219	C	0.290099	0.257691	0.595547
	C220	C	0.207547	0.241344	0.406313
	C221	C	0.254842	0.232496	0.680383
	C222	C	0.242713	0.266698	0.321772
	C223	C	0.214375	0.224413	0.587626
	C224	C	0.283173	0.274789	0.414539
	H225	H	0.309881	0.294464	0.347247
	H226	H	0.187614	0.204828	0.655075
	H227	H	0.237701	0.279910	0.181768
	H228	H	0.259809	0.219363	0.820528
	C229	C	0.333344	0.265816	0.693962
	H230	H	0.359064	0.285365	0.616002
	C231	C	0.164215	0.233404	0.308115
	H232	H	0.138319	0.214146	0.386482
	C233	C	0.709177	0.251002	0.613049
	C234	C	0.787326	0.249399	0.382450
	C235	C	0.750050	0.272513	0.649837
	C236	C	0.746521	0.227745	0.346090
	C237	C	0.788396	0.271761	0.536729
	C238	C	0.708171	0.228500	0.459200
	H239	H	0.676808	0.211918	0.428648
	H240	H	0.819795	0.288256	0.567564
	H241	H	0.745431	0.210656	0.226582
	H242	H	0.751184	0.289519	0.769597
	C243	C	0.668656	0.251203	0.734541
	H244	H	0.639584	0.230832	0.704172
	C245	C	0.828003	0.248947	0.261922
	H246	H	0.857107	0.269249	0.292678
	C247	C	0.501414	0.265366	0.324664
	C248	C	0.379472	0.255735	-0.038041
	C249	C	0.628685	0.271659	-0.014955
	C250	C	0.496687	0.149132	0.700907
	C251	C	0.495450	0.381874	0.593425
	C252	C	0.420717	0.275034	-0.104164
	C253	C	0.610920	0.233611	0.064095
	C254	C	0.509243	0.186987	0.764990
	C255	C	0.457840	0.368150	0.494424
	C256	C	0.459065	0.278355	0.009556
	C257	C	0.571608	0.231699	0.174417
	C258	C	0.511056	0.223813	0.648752
	C259	C	0.459396	0.331173	0.412639
	C260	C	0.458288	0.263284	0.194794
	C261	C	0.547217	0.267267	0.208394
	C262	C	0.500755	0.224865	0.462139
	C263	C	0.498353	0.305669	0.426152
	C264	C	0.416283	0.245826	0.262032
	C265	C	0.565328	0.305201	0.128629
	C266	C	0.488187	0.186740	0.399232
	C267	C	0.535940	0.319634	0.525351
	C268	C	0.378125	0.241894	0.148970
	C269	C	0.605095	0.307488	0.020511
	C270	C	0.486370	0.149866	0.514022
	C271	C	0.534495	0.356439	0.609040
	H272	H	0.424032	0.286891	-0.246433
	H273	H	0.628650	0.205290	0.041402
	H274	H	0.517192	0.187381	0.908889
	H275	H	0.427219	0.387224	0.481282
	H276	H	0.490187	0.293084	-0.048126
	H277	H	0.560054	0.201566	0.234077
	H278	H	0.520347	0.252053	0.706878
	H279	H	0.429533	0.322495	0.335699
	H280	H	0.413571	0.234749	0.405731
	H281	H	0.547741	0.333535	0.151469
	H282	H	0.479214	0.185956	0.256272
	H283	H	0.567245	0.301456	0.534351
	H284	H	0.346506	0.227319	0.204222
	H285	H	0.618387	0.337237	-0.038656
	H286	H	0.475193	0.121772	0.457708
	H287	H	0.564642	0.366282	0.681723
	N288	N	0.339424	0.250880	-0.140867
	N289	N	0.667000	0.273950	-0.132936
	N290	N	0.496458	0.112457	0.820197
	N291	N	0.492122	0.419084	0.674325
