data_Molecule from CHK

_cell_length_a		28.656501
_cell_length_b		28.669020
_cell_length_c		7.114393
_cell_angle_alpha	90.858398
_cell_angle_beta	89.140820
_cell_angle_gamma	92.302180
_symmetry_space_group_name_H-M	'P 1'
_symmetry_Int_Tables_number		1

loop_
	_symmetry_equiv_pos_as_xyz
	x,y,z

loop_
	_atom_site_label
	_atom_site_type_symbol
	_atom_site_fract_x
	_atom_site_fract_y
	_atom_site_fract_z
	C0	C	-0.001332	0.748764	0.625833
	C1	C	-0.007120	0.625227	0.999850
	C2	C	-0.006470	0.879058	0.970385
	C3	C	-0.124931	0.743062	0.251973
	C4	C	0.129034	0.744190	0.281130
	C5	C	0.010133	0.669160	1.062315
	C6	C	-0.044530	0.863361	0.862287
	C7	C	-0.081038	0.760571	0.189935
	C8	C	0.113386	0.706010	0.388576
	C9	C	0.012023	0.707772	0.944839
	C10	C	-0.042793	0.822760	0.752027
	C11	C	-0.042408	0.762385	0.307365
	C12	C	0.072760	0.707576	0.498856
	C13	C	-0.004035	0.705470	0.760174
	C14	C	-0.002845	0.796043	0.741089
	C15	C	-0.044593	0.745818	0.491278
	C16	C	0.045977	0.747460	0.510507
	C17	C	-0.021658	0.661482	0.698636
	C18	C	0.036338	0.814296	0.837154
	C19	C	-0.088612	0.728241	0.552841
	C20	C	0.064160	0.786743	0.414973
	C21	C	-0.023800	0.622730	0.815500
	C22	C	0.034799	0.854612	0.949336
	C23	C	-0.127390	0.726181	0.436017
	C24	C	0.104493	0.785373	0.302722
	H25	H	0.021559	0.674183	1.205473
	H26	H	-0.076094	0.883017	0.869118
	H27	H	-0.076052	0.772299	0.047180
	H28	H	0.133104	0.674499	0.381236
	H29	H	0.026334	0.740319	1.000919
	H30	H	-0.073496	0.811953	0.673568
	H31	H	-0.009906	0.776926	0.251651
	H32	H	0.061997	0.676792	0.576813
	H33	H	-0.033831	0.657319	0.555603
	H34	H	0.068592	0.796099	0.823440
	H35	H	-0.092749	0.715947	0.695706
	H36	H	0.045905	0.818943	0.429198
	H37	H	-0.038508	0.589538	0.764374
	H38	H	0.065975	0.867711	1.020129
	H39	H	-0.160583	0.711406	0.486974
	H40	H	0.117550	0.816609	0.232299
	N41	N	-0.010902	0.585550	1.113146
	N42	N	-0.009627	0.919338	1.084257
	N43	N	-0.164596	0.739269	0.138525
	N44	N	0.169399	0.741269	0.167558
	C45	C	0.289510	0.747781	0.626858
	C46	C	0.211021	0.753138	0.872275
	C47	C	0.247288	0.764860	0.564336
	C48	C	0.253173	0.735845	0.934538
	C49	C	0.208804	0.767482	0.684605
	C50	C	0.291659	0.733234	0.814280
	H51	H	0.323985	0.720039	0.865042
	H52	H	0.176437	0.780551	0.633691
	H53	H	0.255219	0.724664	1.079024
	H54	H	0.245205	0.775930	0.419714
	C55	C	0.330667	0.744970	0.500682
	H56	H	0.361881	0.730900	0.562758
	C57	C	0.169784	0.755683	0.998163
	H58	H	0.138588	0.769814	0.936241
	C59	C	0.710708	0.744533	0.633360
	C60	C	0.789818	0.755935	0.866570
	C61	C	0.748147	0.775309	0.584592
	C62	C	0.752324	0.725255	0.915611
	C63	C	0.786906	0.780958	0.698957
	C64	C	0.713558	0.719615	0.801262
	H65	H	0.684851	0.695970	0.842021
	H66	H	0.815547	0.804715	0.658507
	H67	H	0.754154	0.706116	1.045487
	H68	H	0.746261	0.794551	0.454990
	C69	C	0.668906	0.739195	0.514673
	H70	H	0.641984	0.714008	0.565514
	C71	C	0.831304	0.761861	0.986711
	H72	H	0.857906	0.787566	0.937257
	C73	C	0.005821	0.539886	0.384780
	C74	C	-0.005459	0.460645	0.617222
	C75	C	-0.024782	0.502371	0.335314
	C76	C	0.025243	0.498103	0.666415
	C77	C	-0.030356	0.463540	0.449260
	C78	C	0.030832	0.536925	0.552428
	H79	H	0.054538	0.565576	0.593194
	H80	H	-0.053936	0.434816	0.408137
	H81	H	0.044469	0.496184	0.796058
	H82	H	-0.043899	0.504224	0.205372
	C83	C	0.011693	0.581423	0.264958
	H84	H	0.037372	0.608035	0.314549
	C85	C	-0.010735	0.418767	0.735439
	H86	H	-0.035987	0.391916	0.684531
	C87	C	-0.003568	0.039026	0.626683
	C88	C	0.002257	-0.039103	0.379757
	C89	C	0.014193	-0.003007	0.687826
	C90	C	-0.015685	0.002864	0.318805
	C91	C	0.017036	-0.041311	0.566855
	C92	C	-0.018540	0.041172	0.439834
	H93	H	-0.032264	0.073354	0.390177
	H94	H	0.030603	-0.073539	0.616812
	H95	H	-0.027188	0.004887	0.174731
	H96	H	0.025578	-0.005104	0.832034
	C97	C	-0.006689	0.079915	0.754130
	H98	H	-0.021694	0.110886	0.694061
	C99	C	0.004981	-0.080216	0.253383
	H100	H	0.019691	-0.111215	0.314489
	C101	C	0.501871	0.751016	0.874146
	C102	C	0.371346	0.756045	1.217362
	C103	C	0.509452	0.873741	0.495705
	C104	C	0.506658	0.620529	0.530852
	C105	C	0.624707	0.759420	1.252176
	C106	C	0.386895	0.793987	1.108363
	C107	C	0.490100	0.830308	0.437020
	C108	C	0.544821	0.636277	0.638278
	C109	C	0.581212	0.740432	1.312073
	C110	C	0.427604	0.792303	0.998632
	C111	C	0.487916	0.791906	0.555586
	C112	C	0.543196	0.676954	0.748112
	C113	C	0.542772	0.737944	1.193640
	C114	C	0.454619	0.752555	0.989548
	C115	C	0.504852	0.794148	0.738955
	C116	C	0.503301	0.703746	0.758873
	C117	C	0.545112	0.753958	1.008906
	C118	C	0.436363	0.713373	1.085545
	C119	C	0.522552	0.838170	0.799658
	C120	C	0.463935	0.685279	0.664545
	C121	C	0.589125	0.771592	0.947557
	C122	C	0.395973	0.714876	1.197369
	C123	C	0.525141	0.876674	0.681500
	C124	C	0.465370	0.644909	0.552659
	C125	C	0.627658	0.774521	1.065603
	H126	H	0.366959	0.825371	1.113627
	H127	H	0.477579	0.825289	0.295435
	H128	H	0.576326	0.616528	0.631657
	H129	H	0.576153	0.728733	1.454838
	H130	H	0.438194	0.822821	0.918690
	H131	H	0.472599	0.759586	0.501415
	H132	H	0.573885	0.687687	0.826800
	H133	H	0.510384	0.723034	1.248959
	H134	H	0.454679	0.681185	1.072452
	H135	H	0.534674	0.842485	0.942698
	H136	H	0.431639	0.703387	0.678961
	H137	H	0.593424	0.783325	0.803975
	H138	H	0.382943	0.683753	1.268648
	H139	H	0.539777	0.909936	0.732239
	H140	H	0.434104	0.631711	0.482742
	H141	H	0.660936	0.788995	1.014225
	N142	N	0.330998	0.759142	1.330937
	N143	N	0.511848	0.913798	0.384456
	N144	N	0.509768	0.580280	0.416774
	N145	N	0.664743	0.762068	1.363632
	C146	C	0.000949	0.251633	0.375496
	C147	C	0.004478	0.119653	0.040343
	C148	C	0.123771	0.259430	0.753776
	C149	C	-0.131090	0.255197	0.710671
	C150	C	0.009345	0.374532	-0.001955
	C151	C	0.043276	0.136319	0.142146
	C152	C	0.080307	0.240187	0.812839
	C153	C	-0.114204	0.294094	0.610090
	C154	C	-0.009689	0.331082	-0.061981
	C155	C	0.042019	0.177388	0.249690
	C156	C	0.041855	0.237960	0.694418
	C157	C	-0.073136	0.292823	0.502428
	C158	C	-0.012145	0.292610	0.056218
	C159	C	0.002268	0.204380	0.260028
	C160	C	0.044169	0.254416	0.510335
	C161	C	-0.046353	0.252953	0.490781
	C162	C	0.003878	0.294890	0.240956
	C163	C	-0.037104	0.186213	0.164903
	C164	C	0.088149	0.272290	0.449703
	C165	C	-0.064760	0.213487	0.584561
	C166	C	0.021573	0.338853	0.302425
	C167	C	-0.036098	0.145375	0.055699
	C168	C	0.126672	0.275009	0.567836
	C169	C	-0.105608	0.214499	0.693810
	C170	C	0.024504	0.377407	0.184561
	H171	H	0.074763	0.116540	0.135207
	H172	H	0.075287	0.227836	0.954669
	H173	H	-0.133803	0.325678	0.618129
	H174	H	-0.021602	0.326108	-0.204490
	H175	H	0.072934	0.188363	0.326495
	H176	H	0.009553	0.222598	0.748710
	H177	H	-0.061999	0.323825	0.426600
	H178	H	-0.027301	0.260320	0.001076
	H179	H	-0.069117	0.204868	0.177219
	H180	H	0.092443	0.284348	0.306567
	H181	H	-0.046296	0.181386	0.571221
	H182	H	0.033345	0.343095	0.445985
	H183	H	-0.067349	0.132578	-0.015364
	H184	H	0.159921	0.289674	0.516968
	H185	H	-0.118586	0.183165	0.763738
	H186	H	0.039019	0.410645	0.236058
	N187	N	0.007932	0.080032	-0.076866
	N188	N	0.163889	0.261842	0.864798
	N189	N	-0.170615	0.258724	0.828509
	N190	N	0.012012	0.414594	-0.113192
	C191	C	0.503603	0.460930	0.873217
	C192	C	0.497898	0.538928	1.120819
	C193	C	0.485598	0.502919	0.812827
	C194	C	0.515659	0.496859	1.181542
	C195	C	0.482811	0.541161	0.934143
	C196	C	0.518461	0.458614	1.060176
	H197	H	0.532107	0.426371	1.109570
	H198	H	0.469113	0.573381	0.884721
	H199	H	0.527142	0.494737	1.325608
	H200	H	0.474044	0.505048	0.668857
	C201	C	0.506492	0.420044	0.745665
	H202	H	0.521344	0.388981	0.805635
	C203	C	0.495049	0.579909	1.247805
	H204	H	0.480213	0.610910	1.187217
	C205	C	0.504807	1.039535	-0.115422
	C206	C	0.494515	0.959739	0.114408
	C207	C	0.475171	1.001477	-0.167463
	C208	C	0.524315	0.997709	0.166014
	C209	C	0.470078	0.962376	-0.054779
	C210	C	0.529418	1.036803	0.053311
	H211	H	0.552397	1.065861	0.096043
	H212	H	0.447198	0.933265	-0.097757
	H213	H	0.543195	0.995991	0.296575
	H214	H	0.456376	1.003151	-0.298242
	C215	C	0.509944	1.081493	-0.233231
	H216	H	0.534730	1.108587	-0.180828
	C217	C	0.489614	0.917667	0.231674
	H218	H	0.465087	0.890423	0.178596
	C219	C	0.289821	0.254864	0.364280
	C220	C	0.209941	0.244544	0.134669
	C221	C	0.251735	0.225278	0.416548
	C222	C	0.247931	0.274304	0.082860
	C223	C	0.212597	0.220171	0.303978
	C224	C	0.287065	0.279421	0.195452
	H225	H	0.316136	0.302368	0.152554
	H226	H	0.183475	0.197319	0.347126
	H227	H	0.246200	0.293138	-0.047788
	H228	H	0.253419	0.206527	0.547411
	C229	C	0.331826	0.259988	0.481964
	H230	H	0.358967	0.284699	0.429363
	C231	C	0.167843	0.239582	0.017445
	H232	H	0.140538	0.215185	0.070983
	C233	C	0.710973	0.253365	0.374852
	C234	C	0.788484	0.246761	0.125029
	C235	C	0.752689	0.234403	0.433406
	C236	C	0.746691	0.265516	0.066208
	C237	C	0.790695	0.231168	0.310982
	C238	C	0.708687	0.268755	0.188632
	H239	H	0.676642	0.283121	0.140571
	H240	H	0.822702	0.216696	0.358903
	H241	H	0.744570	0.277371	-0.077346
	H242	H	0.754775	0.222451	0.576835
	C243	C	0.670266	0.256599	0.503263
	H244	H	0.639444	0.272204	0.444512
	C245	C	0.829117	0.243324	-0.003650
	H246	H	0.859916	0.227661	0.055028
	C247	C	0.498548	0.248306	0.124791
	C248	C	0.375840	0.240283	-0.254058
	C249	C	0.630477	0.244674	-0.211050
	C250	C	0.490245	0.125519	0.502957
	C251	C	0.495006	0.380310	0.459733
	C252	C	0.419304	0.259532	-0.313078
	C253	C	0.613622	0.205792	-0.110294
	C254	C	0.509510	0.168934	0.562273
	C255	C	0.456169	0.363601	0.358281
	C256	C	0.457714	0.261884	-0.194436
	C257	C	0.572629	0.207107	-0.002167
	C258	C	0.511960	0.207349	0.443777
	C259	C	0.457426	0.322541	0.250656
	C260	C	0.455375	0.245489	-0.010263
	C261	C	0.545950	0.247040	0.010148
	C262	C	0.495636	0.205075	0.259486
	C263	C	0.497190	0.295572	0.240180
	C264	C	0.411377	0.227654	0.050348
	C265	C	0.564193	0.286414	-0.084675
	C266	C	0.477758	0.161132	0.198607
	C267	C	0.536603	0.313801	0.334869
	C268	C	0.372890	0.224833	-0.067955
	C269	C	0.604983	0.285366	-0.194259
	C270	C	0.474855	0.122630	0.316753
	C271	C	0.535614	0.354648	0.443971
	H272	H	0.424388	0.271629	-0.455252
	H273	H	0.633103	0.174139	-0.119045
	H274	H	0.521532	0.173986	0.704574
	H275	H	0.424616	0.383268	0.365943
	H276	H	0.490080	0.277024	-0.249048
	H277	H	0.561380	0.176048	0.073060
	H278	H	0.527116	0.239664	0.498677
	H279	H	0.426418	0.311412	0.174766
	H280	H	0.407045	0.215678	0.193584
	H281	H	0.545702	0.318503	-0.071492
	H282	H	0.465813	0.156857	0.055301
	H283	H	0.568641	0.295196	0.322300
	H284	H	0.339637	0.210161	-0.017150
	H285	H	0.617889	0.316668	-0.264607
	H286	H	0.460159	0.089419	0.265758
	H287	H	0.566900	0.367498	0.514657
	N288	N	0.335784	0.237710	-0.365430
	N289	N	0.669993	0.241169	-0.328945
	N290	N	0.487615	0.085467	0.614267
	N291	N	0.491644	0.419938	0.576985
