data_Molecule from CHK

_cell_length_a		32.078816
_cell_length_b		32.005790
_cell_length_c		7.378217
_cell_angle_alpha	85.913269
_cell_angle_beta	94.208368
_cell_angle_gamma	100.631992
_symmetry_space_group_name_H-M	'P 1'
_symmetry_Int_Tables_number		1

loop_
	_symmetry_equiv_pos_as_xyz
	x,y,z

loop_
	_atom_site_label
	_atom_site_type_symbol
	_atom_site_fract_x
	_atom_site_fract_y
	_atom_site_fract_z
	C0	C	0.026371	0.778176	0.373018
	C1	C	0.015415	0.663609	0.759263
	C2	C	0.030822	0.884612	0.727355
	C3	C	-0.088329	0.767393	-0.012325
	C4	C	0.132337	0.782084	0.018744
	C5	C	0.031639	0.704666	0.816268
	C6	C	-0.005581	0.870576	0.615230
	C7	C	-0.047490	0.784260	-0.068856
	C8	C	0.118388	0.745758	0.131357
	C9	C	0.035149	0.740424	0.694925
	C10	C	-0.006219	0.838691	0.494996
	C11	C	-0.011696	0.787677	0.052215
	C12	C	0.086667	0.745316	0.251543
	C13	C	0.021871	0.737811	0.510649
	C14	C	0.029146	0.819421	0.479923
	C15	C	-0.014011	0.773548	0.235555
	C16	C	0.067443	0.780795	0.265982
	C17	C	0.003884	0.696910	0.455508
	C18	C	0.066967	0.837941	0.573213
	C19	C	-0.054744	0.755358	0.290592
	C20	C	0.085904	0.818574	0.172281
	C21	C	0.000347	0.660962	0.576379
	C22	C	0.067905	0.870203	0.691898
	C23	C	-0.090724	0.751885	0.169982
	C24	C	0.118007	0.819322	0.053629
	H25	H	0.040955	0.709922	0.957602
	H26	H	-0.033785	0.884330	0.622122
	H27	H	-0.042409	0.794251	-0.209593
	H28	H	0.132104	0.717469	0.124878
	H29	H	0.048386	0.770962	0.747901
	H30	H	-0.035185	0.828344	0.413572
	H31	H	0.018656	0.801428	-0.000370
	H32	H	0.076454	0.716414	0.333546
	H33	H	-0.007478	0.693182	0.314509
	H34	H	0.095763	0.825695	0.557638
	H35	H	-0.058308	0.743680	0.431192
	H36	H	0.073772	0.847499	0.187652
	H37	H	-0.014595	0.630022	0.529973
	H38	H	0.097348	0.883790	0.763824
	H39	H	-0.121499	0.736635	0.216141
	H40	H	0.131538	0.848731	-0.018649
	N41	N	0.011380	0.626517	0.875718
	N42	N	0.031907	0.911901	0.869583
	N43	N	-0.125446	0.763173	-0.128508
	N44	N	0.159544	0.782914	-0.123139
	C45	C	0.297666	0.747343	-0.175552
	C46	C	0.291208	0.711657	-0.052462
	C47	C	0.270128	0.712090	0.105591
	C48	C	0.253949	0.748002	0.147749
	C49	C	0.260554	0.783614	0.023174
	C50	C	0.282200	0.783465	-0.133249
	C51	C	0.230549	0.748425	0.315327
	C52	C	0.229209	0.786579	0.396880
	C53	C	0.206664	0.787051	0.550632
	C54	C	0.184479	0.749329	0.631534
	C55	C	0.185845	0.711115	0.551922
	C56	C	0.208355	0.710697	0.398134
	H57	H	0.205632	0.816862	0.609791
	H58	H	0.286835	0.811498	-0.226000
	H59	H	0.168955	0.681515	0.612085
	H60	H	0.303728	0.683746	-0.081005
	H61	H	0.246396	0.816401	0.340374
	H62	H	0.247432	0.811512	0.045926
	H63	H	0.267352	0.684432	0.200416
	H64	H	0.207936	0.680603	0.339061
	C65	C	0.321543	0.748045	-0.339662
	H66	H	0.329377	0.779485	-0.410862
	C67	C	0.159482	0.749468	0.791319
	H68	H	0.139082	0.718912	0.827168
	C69	C	0.657226	0.732642	-0.072707
	C70	C	0.688950	0.768803	-0.094631
	C71	C	0.722646	0.777737	0.034826
	C72	C	0.726577	0.750884	0.192403
	C73	C	0.694575	0.714638	0.213099
	C74	C	0.660712	0.705770	0.084296
	C75	C	0.763422	0.759867	0.328976
	C76	C	0.760797	0.745035	0.512912
	C77	C	0.795901	0.751754	0.637099
	C78	C	0.835273	0.774273	0.584032
	C79	C	0.837724	0.790552	0.402686
	C80	C	0.802871	0.783174	0.278198
	H81	H	0.793211	0.739456	0.777403
	H82	H	0.636514	0.677675	0.104850
	H83	H	0.867684	0.808408	0.358168
	H84	H	0.686584	0.790121	-0.214526
	H85	H	0.730678	0.728381	0.560509
	H86	H	0.696594	0.692614	0.330500
	H87	H	0.745794	0.806634	0.014394
	H88	H	0.806913	0.794575	0.137636
	C89	C	0.621117	0.723382	-0.208233
	H90	H	0.596991	0.695401	-0.173880
	C91	C	0.873528	0.780335	0.709931
	H92	H	0.901334	0.800632	0.652091
	C93	C	-0.015406	0.409819	0.822848
	C94	C	0.020557	0.441858	0.842904
	C95	C	0.028798	0.475549	0.713053
	C96	C	0.001418	0.479163	0.556910
	C97	C	-0.034676	0.446903	0.538266
	C98	C	-0.042852	0.413033	0.667477
	C99	C	0.009821	0.515918	0.419621
	C100	C	-0.005506	0.512976	0.236265
	C101	C	0.000771	0.547982	0.111419
	C102	C	0.023295	0.587573	0.163237
	C103	C	0.039985	0.590362	0.344052
	C104	C	0.033039	0.555611	0.469223
	H105	H	-0.011845	0.545037	-0.028476
	H106	H	-0.070821	0.388601	0.648465
	H107	H	0.057811	0.620508	0.387648
	H108	H	0.042294	0.439726	0.961580
	H109	H	-0.022150	0.482669	0.189606
	H110	H	-0.057094	0.448709	0.422094
	H111	H	0.057580	0.498924	0.731914
	H112	H	0.044743	0.559907	0.609403
	C113	C	-0.023715	0.373593	0.958387
	H114	H	-0.051528	0.349112	0.925661
	C115	C	0.029004	0.625707	0.036586
	H116	H	0.049562	0.653641	0.092970
	C117	C	-0.001387	0.050110	0.926512
	C118	C	-0.037104	0.044026	0.803519
	C119	C	-0.036949	0.023164	0.644344
	C120	C	-0.001302	0.006828	0.600866
	C121	C	0.034391	0.013181	0.725087
	C122	C	0.034518	0.034605	0.882661
	C123	C	-0.001256	-0.016529	0.432481
	C124	C	0.036663	-0.018369	0.351017
	C125	C	0.036762	-0.040973	0.196787
	C126	C	-0.001110	-0.062727	0.115267
	C127	C	-0.039084	-0.060906	0.194887
	C128	C	-0.039128	-0.038359	0.349219
	H129	H	0.066393	-0.042389	0.137707
	H130	H	0.062593	0.038997	0.975182
	H131	H	-0.068793	-0.077483	0.134339
	H132	H	-0.064851	0.056585	0.833243
	H133	H	0.066607	-0.001516	0.407868
	H134	H	0.062129	-0.000010	0.701314
	H135	H	-0.064649	0.020632	0.549860
	H136	H	-0.069062	-0.038455	0.408245
	C137	C	-0.000522	0.073350	1.092957
	H138	H	0.030836	0.080575	1.165140
	C139	C	-0.001364	-0.087774	-0.045092
	H140	H	-0.032054	-0.107861	-0.081449
	C141	C	0.469336	0.720901	0.126696
	C142	C	0.360969	0.716133	0.469271
	C143	C	0.478400	0.834771	-0.264029
	C144	C	0.467819	0.615793	-0.231566
	C145	C	0.582447	0.738314	0.520032
	C146	C	0.373760	0.751514	0.349493
	C147	C	0.457988	0.794170	-0.313401
	C148	C	0.504203	0.630833	-0.121057
	C149	C	0.541386	0.723190	0.577390
	C150	C	0.406521	0.752128	0.234220
	C151	C	0.455251	0.758712	-0.190470
	C152	C	0.504004	0.662116	0.001170
	C153	C	0.506079	0.717229	0.453801
	C154	C	0.427768	0.717667	0.230701
	C155	C	0.473240	0.761097	-0.012191
	C156	C	0.467802	0.679806	0.020013
	C157	C	0.509276	0.726885	0.266750
	C158	C	0.410538	0.680349	0.330516
	C159	C	0.493785	0.801739	0.036887
	C160	C	0.430189	0.660012	-0.071016
	C161	C	0.550382	0.743139	0.210651
	C162	C	0.377771	0.679557	0.445805
	C163	C	0.496915	0.837314	-0.085972
	C164	C	0.430093	0.628392	-0.191951
	C165	C	0.585935	0.749030	0.333528
	H166	H	0.358862	0.779271	0.345702
	H167	H	0.443796	0.789042	-0.449005
	H168	H	0.533001	0.618222	-0.130020
	H169	H	0.536308	0.717085	0.720922
	H170	H	0.416044	0.780444	0.147354
	H171	H	0.438388	0.728615	-0.236856
	H172	H	0.532880	0.672944	0.082231
	H173	H	0.475467	0.705308	0.507570
	H174	H	0.424428	0.652121	0.323556
	H175	H	0.507549	0.805742	0.174518
	H176	H	0.400753	0.670720	-0.051820
	H177	H	0.554489	0.751767	0.067446
	H178	H	0.365550	0.650672	0.524794
	H179	H	0.514175	0.867934	-0.044742
	H180	H	0.400774	0.613965	-0.262526
	H181	H	0.617088	0.762349	0.285935
	N182	N	0.333556	0.715026	0.610011
	N183	N	0.482849	0.871575	-0.382033
	N184	N	0.467217	0.588906	-0.374784
	N185	N	0.618308	0.745876	0.642572
	C186	C	-0.026311	0.222620	0.624099
	C187	C	-0.032216	0.112265	0.287852
	C188	C	0.086929	0.234077	1.018674
	C189	C	-0.132747	0.220016	0.976459
	C190	C	-0.006776	0.335079	0.227940
	C191	C	0.003909	0.126581	0.401443
	C192	C	0.047345	0.210115	1.062034
	C193	C	-0.116596	0.256982	0.871679
	C194	C	-0.022590	0.293937	0.171497
	C195	C	0.004853	0.159857	0.515045
	C196	C	0.012052	0.206839	0.938128
	C197	C	-0.085061	0.257097	0.750885
	C198	C	-0.029127	0.258814	0.295891
	C199	C	-0.029667	0.180870	0.520248
	C200	C	0.013922	0.226589	0.762828
	C201	C	-0.067162	0.220987	0.731684
	C202	C	-0.020569	0.262463	0.483485
	C203	C	-0.067059	0.163511	0.421171
	C204	C	0.054021	0.249043	0.717094
	C205	C	-0.086860	0.183143	0.821254
	C206	C	-0.004996	0.303855	0.539274
	C207	C	-0.068245	0.130151	0.307940
	C208	C	0.089345	0.252963	0.841391
	C209	C	-0.118838	0.182639	0.940191
	C210	C	0.001585	0.339211	0.415579
	H211	H	0.031847	0.112074	0.403437
	H212	H	0.042905	0.193711	1.194034
	H213	H	-0.129081	0.285868	0.881563
	H214	H	-0.028050	0.288545	0.027896
	H215	H	0.033548	0.170146	0.598578
	H216	H	-0.017444	0.187996	0.981085
	H217	H	-0.074070	0.286245	0.671963
	H218	H	-0.040618	0.227996	0.242233
	H219	H	-0.095085	0.177686	0.427487
	H220	H	0.057882	0.263718	0.580996
	H221	H	-0.075946	0.153758	0.802017
	H222	H	0.002711	0.308329	0.682937
	H223	H	-0.097166	0.118022	0.228918
	H224	H	0.119569	0.271438	0.802457
	H225	H	-0.132890	0.153152	1.010598
	H226	H	0.014047	0.370643	0.463204
	N227	N	-0.033274	0.085636	0.143654
	N228	N	0.123862	0.237747	1.135789
	N229	N	-0.158481	0.219201	1.123477
	N230	N	-0.000488	0.371063	0.105709
	C231	C	0.502343	0.450544	0.571587
	C232	C	0.537236	0.455356	0.699164
	C233	C	0.536711	0.476353	0.857666
	C234	C	0.501462	0.493968	0.896095
	C235	C	0.466443	0.488553	0.768182
	C236	C	0.466694	0.467054	0.611110
	C237	C	0.501123	0.517514	1.063636
	C238	C	0.463011	0.520015	1.142056
	C239	C	0.462720	0.542651	1.296024
	C240	C	0.500577	0.563721	1.380365
	C241	C	0.538710	0.561506	1.302900
	C242	C	0.538955	0.538888	1.148947
	H243	H	0.432957	0.544591	1.352799
	H244	H	0.439169	0.463452	0.515468
	H245	H	0.568380	0.577687	1.365294
	H246	H	0.564634	0.441763	0.673373
	H247	H	0.433080	0.503682	1.082871
	H248	H	0.439019	0.502574	0.788676
	H249	H	0.563733	0.478001	0.955617
	H250	H	0.569004	0.538521	1.091730
	C251	C	0.501825	0.427125	0.405865
	H252	H	0.470949	0.421118	0.329100
	C253	C	0.500600	0.588825	1.540399
	H254	H	0.531209	0.608984	1.577215
	C255	C	0.517159	1.089747	-0.321569
	C256	C	0.481712	1.057447	-0.348756
	C257	C	0.472419	1.023480	-0.220885
	C258	C	0.498114	1.019904	-0.059438
	C259	C	0.533471	1.052644	-0.032884
	C260	C	0.542695	1.086756	-0.160133
	C261	C	0.488774	0.982809	0.075645
	C262	C	0.502249	0.985459	0.261205
	C263	C	0.495267	0.950147	0.384190
	C264	C	0.473804	0.910508	0.328247
	C265	C	0.459065	0.907948	0.144886
	C266	C	0.466661	0.943035	0.021717
	H267	H	0.506569	0.952876	0.525791
	H268	H	0.570046	1.111548	-0.134747
	H269	H	0.442080	0.877770	0.098015
	H270	H	0.461260	1.059558	-0.471600
	H271	H	0.518063	1.015744	0.311025
	H272	H	0.554531	1.051099	0.088078
	H273	H	0.444121	0.999820	-0.245693
	H274	H	0.456372	0.938916	-0.120086
	C275	C	0.526673	1.126338	-0.454635
	H276	H	0.553790	1.150874	-0.414469
	C277	C	0.467804	0.872007	0.452925
	H278	H	0.449931	0.843534	0.390244
	C279	C	0.343509	0.266783	1.070444
	C280	C	0.310121	0.232493	1.099620
	C281	C	0.275781	0.224143	0.972786
	C282	C	0.272937	0.249672	0.810441
	C283	C	0.306800	0.283793	0.781687
	C284	C	0.341257	0.292083	0.907962
	C285	C	0.235439	0.241497	0.676702
	C286	C	0.238176	0.254021	0.490380
	C287	C	0.202579	0.248251	0.368571
	C288	C	0.162509	0.229078	0.426659
	C289	C	0.159803	0.215241	0.610860
	C290	C	0.195220	0.221581	0.732777
	H291	H	0.205405	0.258818	0.226323
	H292	H	0.366891	0.318515	0.881015
	H293	H	0.129322	0.199832	0.659214
	H294	H	0.311653	0.212206	1.223247
	H295	H	0.268728	0.268128	0.439156
	H296	H	0.305865	0.304657	0.659835
	H297	H	0.251193	0.196721	0.999081
	H298	H	0.191093	0.212063	0.875168
	C299	C	0.380351	0.275451	1.202877
	H300	H	0.405521	0.301783	1.161441
	C301	C	0.123803	0.224567	0.303246
	H302	H	0.094719	0.209591	0.368744
	C303	C	0.703483	0.250843	1.180475
	C304	C	0.707863	0.285971	1.054080
	C305	C	0.728838	0.285956	0.895442
	C306	C	0.746878	0.251019	0.855651
	C307	C	0.741857	0.215743	0.982330
	C308	C	0.720385	0.215476	1.139552
	C309	C	0.770420	0.251272	0.687955
	C310	C	0.773723	0.213340	0.608940
	C311	C	0.796228	0.213626	0.454486
	C312	C	0.816348	0.251904	0.370107
	C313	C	0.813413	0.289859	0.448359
	C314	C	0.790956	0.289524	0.602904
	H315	H	0.798738	0.183997	0.397140
	H316	H	0.717122	0.187773	1.234242
	H317	H	0.828877	0.319854	0.386064
	H318	H	0.693959	0.313149	1.080896
	H319	H	0.758096	0.183074	0.667868
	H320	H	0.756167	0.188522	0.960854
	H321	H	0.730122	0.313139	0.798466
	H322	H	0.790025	0.319481	0.660600
	C323	C	0.680127	0.249820	1.346371
	H324	H	0.674534	0.218812	1.422411
	C325	C	0.840982	0.252543	0.208479
	H326	H	0.859837	0.283695	0.169377
	C327	C	0.530791	0.277854	0.876162
	C328	C	0.418656	0.260399	0.477126
	C329	C	0.639808	0.281185	0.536941
	C330	C	0.512036	0.165217	1.272324
	C331	C	0.533780	0.387101	1.216207
	C332	C	0.459217	0.279843	0.425305
	C333	C	0.623978	0.244639	0.645257
	C334	C	0.531846	0.205676	1.325458
	C335	C	0.497690	0.371756	1.104247
	C336	C	0.494121	0.285789	0.551078
	C337	C	0.591378	0.244455	0.760895
	C338	C	0.538280	0.240721	1.200555
	C339	C	0.497663	0.339062	0.988635
	C340	C	0.490937	0.272774	0.735368
	C341	C	0.572229	0.280077	0.772341
	C342	C	0.525427	0.237788	1.015873
	C343	C	0.532990	0.319353	0.980655
	C344	C	0.450015	0.254377	0.787670
	C345	C	0.591007	0.317598	0.677896
	C346	C	0.506751	0.196921	0.962257
	C347	C	0.570186	0.337751	1.078421
	C348	C	0.414882	0.248353	0.662576
	C349	C	0.623796	0.318093	0.563069
	C350	C	0.500228	0.161645	1.086472
	C351	C	0.570515	0.370599	1.193439
	H352	H	0.464689	0.288918	0.283889
	H353	H	0.636580	0.215672	0.640926
	H354	H	0.540762	0.210950	1.467301
	H355	H	0.468996	0.384897	1.105286
	H356	H	0.524438	0.300741	0.501475
	H357	H	0.580198	0.215508	0.841178
	H358	H	0.553435	0.270950	1.251302
	H359	H	0.469063	0.328309	0.905404
	H360	H	0.445651	0.244302	0.929486
	H361	H	0.578430	0.346447	0.689139
	H362	H	0.496789	0.192720	0.820113
	H363	H	0.598884	0.324846	1.069436
	H364	H	0.383846	0.233561	0.707423
	H365	H	0.636945	0.347222	0.487640
	H366	H	0.485186	0.130679	1.040614
	H367	H	0.599350	0.383406	1.271640
	N368	N	0.382600	0.254141	0.355301
	N369	N	0.666423	0.282184	0.393350
	N370	N	0.505099	0.129134	1.393806
	N371	N	0.534398	0.413733	1.359933
